128
Lattice="11.443175336540673 0.0 0.0 0.0 11.443175326215089 0.0 0.0 0.0 11.443175332187145" Properties=species:S:1:pos:R:3 pbc="T T T"
Fe      -0.08178006      -0.04201070      -0.04148557
Fe      -0.04739530      -0.04538867       2.90746615
Fe       1.41997839       1.44096632       4.26748674
Fe      -0.01578198      -0.01033993       5.72162279
Fe       1.42076126       1.43987508       7.13141127
Fe      -0.02869068      -0.01044157       8.55955989
Fe       1.38891130       1.47240767       9.93099832
Fe      -0.04667241       2.90818911      -0.04538871
Fe       1.41982751       4.26748666       1.44081550
Fe      -0.05644863       2.91724243       2.91724247
Fe       1.42413366       4.30869456       4.30867759
Fe      -0.02027106       2.88142011       5.71471513
Fe       1.42269886       4.30790726       7.14191662
Fe      -0.03981628       2.90062549       8.55176658
Fe       1.41966599       4.31410166       9.98374781
Fe      -0.01575029       5.72165412      -0.01064063
Fe       1.42091875       7.13141125       1.44003256
Fe      -0.02062626       5.71471512       2.88106487
Fe       1.42259240       7.14192025       4.30774591
Fe      -0.00384357       5.73069657       5.73070859
Fe       1.42453941       7.14421207       7.14406039
Fe      -0.01936154       5.73284868       8.55982399
Fe       1.41975628       7.15191807       9.99702813
Fe      -0.02903063       8.55947053      -0.01073097
Fe       1.38838616       9.93099832       1.47188259
Fe      -0.03983167       8.55176656       2.90061007
Fe       1.41995536       9.98408775       4.31401234
Fe      -0.01932381       8.55988787       5.73265588
Fe       1.42005702       9.99699639       7.15194945
Fe      -0.03361739       8.54684115       8.54663966
Fe       1.38500824       9.96538309       9.96610604
Fe       4.37297084       1.47188253       1.47240764
Fe       2.90280453      -0.04148558       2.94257391
Fe       4.32022139       1.44112780       4.31410170
Fe       2.87027202      -0.00963564       5.74216095
Fe       4.30694105       1.44103757       7.15191812
Fe       2.87136324      -0.01041854       8.60608548
Fe       4.33786308       1.47578560       9.96538310
Fe       2.90227945       2.94257392      -0.04201073
Fe       4.31988146       4.31401238       1.44083848
Fe       2.90618252       2.90746617       2.90818917
Fe       4.32480814       4.32693263       4.32673113
Fe       2.87143450       2.87654411       5.72165413
Fe       4.31055232       4.31374829       7.14072356
Fe       2.87152479       2.88982443       8.55947057
Fe       4.33100701       4.32180570       9.97294674
Fe       2.87042949       5.74216095      -0.00947811
Fe       4.30697275       7.15194945       1.44073682
Fe       2.87113373       5.72162280       2.87657585
Fe       4.31051456       7.14091634       4.31368438
Fe       2.86665137       5.72951184       5.72936020
Fe       4.29503428       7.14286365       7.14287567
Fe       2.86849186       5.73165562       8.56566502
Fe       4.31146177       7.15885710       9.99215213
Fe       2.87121238       8.60608553      -0.01056943
Fe       4.33858612       9.96610601       1.47578559
Fe       2.87123537       8.55955985       2.88948448
Fe       4.33102245       9.97296212       4.32180566
Fe       2.86859831       8.56582628       5.73165195
Fe       4.31181702       9.99250735       7.15885714
Fe       2.86705709       8.56489467       8.56487768
Fe       4.34763937       9.95632981       9.95632979
Fe       5.69788362      -0.01056943      -0.01041851
Fe       7.17255790       1.44003259       1.43987512
Fe       5.74449862      -0.01073095       2.88982444
Fe       7.16205259       1.43809493       4.30790728
Fe       5.73830422      -0.00769809       5.73165564
Fe       7.15990876       1.43625443       7.14421205
Fe       5.73909150      -0.00626327       8.56489466
Fe       7.15201970       1.44073685       9.99699639
Fe       5.74440932       2.88948453      -0.01044159
Fe       7.16204890       4.30774597       1.43820138
Fe       5.75220259       2.90061011       2.90062547
Fe       7.16622057       4.31635192       4.31640516
Fe       5.74414518       2.88015539       5.73284873
Fe       7.16593823       4.30294929       7.13800136
Fe       5.75732953       2.89441121       8.54684116
Fe       7.16305283       4.31368440       9.99345458
Fe       5.73814286       5.73165197      -0.00780448
Fe       7.15975708       7.14406044       1.43625437
Fe       5.74408131       5.73265588       2.88011763
Fe       7.16596779       7.13803088       4.30294935
Fe       5.73334627       5.73554139       5.73557086
Fe       7.16497024       7.13899886       7.13899888
Fe       5.74674885       5.73582368       8.55716712
Fe       7.16110549       7.14287569      10.00893488
Fe       5.73907450       8.56487765      -0.00626329
Fe       7.15205106       9.99702813       1.44103753
Fe       5.75712799       8.54663962       2.89441118
Fe       7.16324564       9.99341685       4.31374824
Fe       5.74680205       8.55722032       5.73582365
Fe       7.16109347      10.00893486       7.14286366
Fe       5.76205828       8.54191087       8.54191091
Fe       7.14511199       9.99215211       9.99250736
Fe       8.56180817      -0.00947815      -0.00963567
Fe      10.03648241       1.44081548       1.44096630
Fe       8.58231503      -0.01064068       2.87654410
Fe       9.99529152       1.43666017       4.30869461
Fe       8.57460896      -0.00585753       5.72951184
Fe       9.99622320       1.43820139       7.14192024
Fe       8.57231718      -0.00780450       8.56582627
Fe       9.98995680       1.44083843       9.98408773
Fe       8.58234639       2.87657587      -0.01033992
Fe       9.99527459       4.30867756       1.43666020
Fe       8.58925402       2.88106484       2.88142015
Fe       9.97230777       4.33166133       4.33166137
Fe       8.57326060       2.86463739       5.73069656
Fe       9.98761724       4.31640511       7.13774859
Fe       8.57131329       2.88011764       8.55988787
Fe       9.97703660       4.32673107       9.97916104
Fe       8.57445733       5.72936020      -0.00585751
Fe       9.99606191       7.14191657       1.43809497
Fe       8.57327255       5.73070859       2.86463737
Fe       9.98756406       7.13774860       4.31635192
Fe       8.56939579       5.73457341       5.73457342
Fe      10.00101986       7.13800137       7.13803091
Fe       8.56842784       5.73557090       8.57062293
Fe       9.99022088       7.14072351       9.99341687
Fe       8.57231352       8.56566498      -0.00769807
Fe       9.98986745       9.98374778       1.44112786
Fe       8.57112043       8.55982398       2.88015537
Fe       9.97723810       9.97916103       4.32693256
Fe       8.56839826       8.57062292       5.73554134
Fe       9.99028480       9.99345460       7.14091634
Fe       8.56814553       8.55716715       8.55722034
Fe       9.98216351       9.97294675       9.97296212
Au       2.91797485      -0.05718109      -0.05718098
Au       1.37321591       1.48757803       1.48757801
128
Lattice="11.451879043191392 0.0 0.0 0.0 11.450345535762688 0.0 0.0 0.0 11.451879041731548" Properties=species:S:1:pos:R:3 pbc="T T T"
Fe      -0.01873380      -0.02015986       0.00012038
Fe       1.33669063       1.43129320       1.52627919
Fe      -0.04275293      -0.02104814       2.90568481
Fe       1.41485296       1.43151524       4.32000057
Fe      -0.02751997      -0.01670901       5.72597642
Fe       1.41485296       1.43107125       7.13187854
Fe      -0.04271495      -0.02104810       8.54615644
Fe       1.33669057       1.43129326       9.92560002
Fe      -0.01873385       2.88274615      -0.00012044
Fe       1.38247867       4.33393322       1.48030095
Fe      -0.04271511       2.88363446       2.90572269
Fe       1.41148672       4.30983171       4.30914182
Fe      -0.02751998       2.87929534       5.72590274
Fe       1.41111555       4.30988041       7.14274022
Fe      -0.04275281       2.88363444       8.54619427
Fe       1.38266873       4.33393328       9.97138791
Fe      -0.03090615       5.73618124       0.00015503
Fe       1.41972084       7.15646590       1.44324876
Fe      -0.03960746       5.75374100       2.90257423
Fe       1.41637615       7.15639772       4.31246167
Fe      -0.01007879       5.73776872       5.72591408
Fe       1.41637627       7.15653408       7.13941739
Fe      -0.03960446       5.75374102       8.54930187
Fe       1.41972096       7.15646594      10.00863034
Fe      -0.03090618       8.57675051      -0.00015502
Fe       1.38266879       9.97899883       1.48049112
Fe      -0.03960447       8.55919089       2.90257715
Fe       1.41111556      10.00305148       4.30913881
Fe      -0.01007873       8.57516334       5.72596492
Fe       1.41148682      10.00310018       7.14273716
Fe      -0.03960741       8.55919097       8.54930476
Fe       1.38247857       9.97899867       9.97157810
Fe       4.38924895       1.43129306       1.52627922
Fe       2.86309009      -0.02015986       2.88170356
Fe       4.31108661       1.43107105       4.32000051
Fe       2.86296982      -0.01819223       5.72593954
Fe       4.31108663       1.43151512       7.13187861
Fe       2.86284932      -0.02015980       8.57017549
Fe       4.38924896       1.43129315       9.92559976
Fe       4.34327069       4.33393324       1.48049123
Fe       2.86284932       2.88274627       2.88170364
Fe       4.31482413       4.30988049       4.30913892
Fe       2.86296971       2.88077859       5.72593958
Fe       4.31445279       4.30983184       7.14273716
Fe       2.86309018       2.88274628       8.57017550
Fe       4.34346099       4.33393318       9.97157800
Fe       2.86296974       5.67692814       0.00000001
Fe       4.30621858       7.15646597       1.44324876
Fe       2.86312475       5.73618128       2.89387595
Fe       4.30956329       7.15653417       4.31246169
Fe       2.86296986       5.73304635       5.72593949
Fe       4.30956335       7.15639775       7.13941734
Fe       2.86281473       5.73618130       8.55800309
Fe       4.30621857       7.15646591      10.00863021
Fe       2.86296976       8.63600369       0.00000002
Fe       4.34346079       9.97899876       1.48030101
Fe       2.86281475       8.57675060       2.89387598
Fe       4.31445270      10.00310015       4.30914196
Fe       2.86296975       8.57988563       5.72593951
Fe       4.31482405      10.00305156       7.14274018
Fe       2.86312480       8.57675059       8.55800311
Fe       4.34327071       9.97899875       9.97138798
Fe       5.74467324      -0.02015982      -0.00012045
Fe       7.18297021       1.43151528       1.44811690
Fe       5.76865460      -0.02104803       2.90572266
Fe       7.17493697       1.43129329       4.31196716
Fe       5.75345948      -0.01670892       5.72590265
Fe       7.17493700       1.43129318       7.13991189
Fe       5.76869239      -0.02104794       8.54619444
Fe       7.18297029       1.43107112      10.00376213
Fe       5.74467331       2.88274622       0.00012046
Fe       7.17211166       4.30983176       1.45148297
Fe       5.76869233       2.88363453       2.90568474
Fe       7.17999371       4.31733284       4.31703254
Fe       5.75345965       2.87929537       5.72597628
Fe       7.18000233       4.31733275       7.13485502
Fe       5.76865457       2.88363452       8.54615646
Fe       7.17210862       4.30988039      10.00002477
Fe       5.75684565       5.73618127      -0.00015509
Fe       7.17543140       7.15639782       1.44659359
Fe       5.76554402       5.75374103       2.90257720
Fe       7.18380930       7.15646591       4.32083964
Fe       5.73601830       5.73776858       5.72596499
Fe       7.18380932       7.15646598       7.13103945
Fe       5.76554695       5.75374098       8.54930474
Fe       7.17543151       7.15653417      10.00528549
Fe       5.75684583       8.57675054       0.00015495
Fe       7.17210864      10.00305141       1.45185428
Fe       5.76554693       8.55919095       2.90257428
Fe       7.18000240       9.99559913       4.31702403
Fe       5.73601832       8.57516330       5.72591404
Fe       7.17999364       9.99559918       7.13484652
Fe       5.76554408       8.55919087       8.54930184
Fe       7.17211170      10.00310011      10.00039609
Fe       8.58890926      -0.01819221      -0.00000003
Fe       9.99484836       1.43107108       1.44811684
Fe       8.58894617      -0.01670900       2.89048981
Fe      10.00288166       1.43129309       4.31196730
Fe       8.58890930      -0.00233274       5.72593951
Fe      10.00288167       1.43129325       7.13991190
Fe       8.58887243      -0.01670902       8.56138922
Fe       9.99484829       1.43151529      10.00376217
Fe       8.58890931       2.88077868       0.00000000
Fe      10.00570994       4.30988044       1.45185422
Fe       8.58887242       2.87929532       2.89048986
Fe       9.99781621       4.31733273       4.31702396
Fe       8.58890925       2.86491910       5.72593949
Fe       9.99782494       4.31733273       7.13484654
Fe       8.58894616       2.87929537       8.56138918
Fe      10.00570687       4.30983185      10.00039608
Fe       8.58890918       5.73304630      -0.00000009
Fe      10.00238704       7.15653410       1.44659360
Fe       8.58888373       5.73776857       2.87304851
Fe       9.99400919       7.15646598       4.32083970
Fe       8.58890931       5.72241802       5.72593954
Fe       9.99400926       7.15646600       7.13103952
Fe       8.58893474       5.73776863       8.57883056
Fe      10.00238711       7.15639778      10.00528546
Fe       8.58890925       8.57988554       0.00000002
Fe      10.00570690      10.00310016       1.45148307
Fe       8.58893471       8.57516324       2.87304848
Fe       9.99782474       9.99559905       4.31703262
Fe       8.58890929       8.59051390       5.72593954
Fe       9.99781630       9.99559918       7.13485511
Fe       8.58888387       8.57516323       8.57883040
Fe      10.00570988      10.00305162      10.00002494
Au       2.86296962      -0.04065200      -0.00000002
Au       2.86296980       2.90323811       0.00000007
128
Lattice="11.447149870000125 0.0 0.0 0.0 11.455809467933065 0.0 0.0 0.0 11.447149860663382" Properties=species:S:1:pos:R:3 pbc="T T T"
Fe       0.01709746       0.00000002       0.01709744
Fe       1.43089388       1.55572086       1.43089370
Fe       1.47483702       1.48068043       4.33811289
Fe      -0.00948178      -0.00005132       5.69286066
Fe       1.43089367       1.44119590       7.15446867
Fe      -0.02238809      -0.00004465       8.56847895
Fe       1.38695068       1.48068046       9.97082426
Fe      -0.01504397       2.90422992      -0.01504081
Fe       1.43089380       4.32723129       1.43089397
Fe      -0.02760437       2.89218331       2.88952922
Fe       1.43251372       4.31580937       4.31305618
Fe      -0.01288689       2.89298013       5.73752887
Fe       1.43089367       4.31742812       7.15446844
Fe      -0.03069563       2.90451637       8.55728194
Fe       1.42927367       4.31580943       9.99588107
Fe      -0.01843504       5.72790473      -0.01843484
Fe       1.43089370       7.12857841       1.43089388
Fe      -0.01821703       5.72790479       2.88000453
Fe       1.43277832       7.13994152       4.31292495
Fe      -0.00175127       5.72788312       5.73477860
Fe       1.43089369       7.13835489       7.15446877
Fe      -0.01370017       5.72786225       8.57518611
Fe       1.42900908       7.13994158       9.99601232
Fe      -0.01504082       8.55157945      -0.01504396
Fe       1.43089384       9.90008845       1.43089410
Fe      -0.02774186       8.56362608       2.88939195
Fe       1.47481820       9.97499197       4.33772151
Fe      -0.01276808       8.56281309       5.73754869
Fe       1.43089352      10.01405333       7.15446869
Fe      -0.03062015       8.55131074       8.55739273
Fe       1.38696944       9.97499187       9.97121553
Fe       4.33772166       1.48081760       1.47481781
Fe       2.84469022      -0.00000005       2.84469011
Fe       4.30795449       1.44896808       4.30787551
Fe       2.88417549      -0.00004423       5.74045860
Fe       4.30923726       1.44661141       7.16488452
Fe       2.87126909      -0.00005131       8.61607687
Fe       4.35045029       1.47843087       9.95882499
Fe       2.88939194       2.89218348      -0.02774196
Fe       4.31292508       4.31586830       1.43277808
Fe       2.87683161       2.90422990       2.87682843
Fe       4.31454778       4.31908684       4.31447907
Fe       2.89248353       2.90451634       5.75165532
Fe       4.31424346       4.31981089       7.15609907
Fe       2.87467448       2.89298017       8.57140871
Fe       4.31846565       4.30996680       9.99063546
Fe       2.88000486       5.72790474      -0.01821715
Fe       4.31305638       7.13999992       1.43251356
Fe       2.88022239       5.72790462       2.88022228
Fe       4.31447908       7.13672252       4.31454782
Fe       2.87548785       5.72786208       5.73375090
Fe       4.31425129       7.13601396       7.15611987
Fe       2.86353863       5.72788340       8.57415901
Fe       4.31830206       7.14584243       9.99047197
Fe       2.88952935       8.56362608      -0.02760425
Fe       4.33811265       9.97512940       1.47483674
Fe       2.87682813       8.55157971       2.87683149
Fe       4.30787545      10.00684124       4.30795464
Fe       2.89240751       8.55131052       5.75154454
Fe       4.30950780      10.00923837       7.16471261
Fe       2.87455583       8.56281289       8.57138878
Fe       4.35011233       9.97737843       9.95848669
Fe       5.69286107       0.00005169      -0.00948184
Fe       7.15446885       1.44175606       1.43089384
Fe       5.74045840       0.00004427       2.88417530
Fe       7.16471297       1.44657091       4.30950767
Fe       5.73338709       0.00000004       5.73338686
Fe       7.15446850       1.44491030       7.15446864
Fe       5.73986285       0.00000006       8.56907427
Fe       7.14422455       1.44657091       9.99942972
Fe       5.73754865       2.89299664      -0.01276829
Fe       7.15446892       4.31745475       1.43089349
Fe       5.75154433       2.90449888       2.89240785
Fe       7.15611948       4.31979551       4.31425130
Fe       5.73510064       2.88527798       5.73519548
Fe       7.15446903       4.32574530       7.15446829
Fe       5.75584260       2.89125858       8.55307253
Fe       7.15281759       4.31979550       9.99468617
Fe       5.73477816       5.72792620      -0.00175100
Fe       7.15446893       7.13838101       1.43089364
Fe       5.73375116       5.72794735       2.87548770
Fe       7.15609911       7.13599831       4.31424359
Fe       5.72434652       5.72790490       5.72434598
Fe       7.15446849       7.13006444       7.15446852
Fe       5.73467011       5.72790488       8.57426702
Fe       7.15283864       7.13599847       9.99469401
Fe       5.73752862       8.56282939      -0.01288694
Fe       7.15446836      10.01461343       1.43089375
Fe       5.75165500       8.55129325       2.89248359
Fe       7.16488481      10.00919808       4.30923714
Fe       5.73519546       8.57053173       5.73510059
Fe       7.15446850      10.01089926       7.15446848
Fe       5.75586459       8.56455054       8.55309456
Fe       7.14405281      10.00919810       9.99970013
Fe       8.56847890       0.00004458      -0.02238793
Fe       9.97121516       1.48081766       1.38696930
Fe       8.61607674       0.00005148       2.87126940
Fe       9.95848672       1.47843070       4.35011254
Fe       8.56907432       0.00000026       5.73986296
Fe       9.99970000       1.44661155       7.14405262
Fe       8.57555051       0.00000003       8.57555055
Fe      10.00098300       1.44896794      10.00106192
Fe       8.55739282       2.90449877      -0.03061999
Fe       9.99601226       4.31586812       1.42900930
Fe       8.57138877       2.89299663       2.87455553
Fe       9.99047159       4.30996698       4.31830188
Fe       8.55309444       2.89125869       5.75586480
Fe       9.99469405       4.31981136       7.15283838
Fe       8.57383705       2.88527782       8.57374184
Fe       9.99438976       4.31908711       9.99445827
Fe       8.57518630       5.72794745      -0.01370011
Fe       9.99588093       7.13999974       1.42927364
Fe       8.57415917       5.72792628       2.86353845
Fe       9.99063532       7.14584262       4.31846557
Fe       8.57426705       5.72790498       5.73467011
Fe       9.99468608       7.13601362       7.15281766
Fe       8.58459127       5.72790482       8.58459113
Fe       9.99445856       7.13672257       9.99438948
Fe       8.55728209       8.55129291      -0.03069594
Fe       9.97082449       9.97512898       1.38695054
Fe       8.57140849       8.56282923       2.87467453
Fe       9.95882499       9.97737864       4.35045046
Fe       8.55307256       8.56455038       5.75584283
Fe       9.99942968      10.00923843       7.14422445
Fe       8.57374175       8.57053140       8.57383706
Fe      10.00106174      10.00684179      10.00098282
Au       2.88850452       0.00000035      -0.02671717
Au      -0.02671714      -0.00000006       2.88850469
128
Lattice="11.449386332312455 0.0 0.0 0.0 11.450220417938757 0.0 0.0 0.0 11.44938633075054" Properties=species:S:1:pos:R:3 pbc="T T T"
Fe      -0.00789605      -0.01007362      -0.00645357
Fe       1.39466990       1.48052327       1.46798060
Fe      -0.02663154      -0.00148979       2.88917012
Fe       1.42407505       1.42544541       4.32166143
Fe      -0.01902579      -0.01216959       5.73583781
Fe       1.42085248       1.42643354       7.14779729
Fe      -0.02541518      -0.01678467       8.55404738
Fe       1.37799192       1.45730711       9.95818231
Fe      -0.06003065       2.83652559      -0.05318139
Fe      -0.07659448       2.83646991       2.93876959
Fe       1.42439362       4.30291404       4.29408428
Fe      -0.02041863       2.86567863       5.72905612
Fe       1.42251985       4.30438966       7.14164929
Fe      -0.04473317       2.88559675       8.54642811
Fe       1.42471972       4.30390613      10.01031700
Fe      -0.05144555       5.75830979      -0.03931369
Fe       1.42746617       7.15212546       1.43515473
Fe      -0.04950733       5.76369491       2.91172287
Fe       1.42459451       7.15947695       4.32054282
Fe      -0.00824034       5.73496673       5.72369257
Fe       1.42297846       7.15664188       7.14548626
Fe      -0.02249071       5.73251289       8.56907985
Fe       1.41805374       7.16577184       9.99169167
Fe      -0.02652140       8.57828127      -0.01311961
Fe       1.39041825       9.99889528       1.47204447
Fe      -0.03814108       8.56217354       2.90044702
Fe       1.42207670      10.01131001       4.31392442
Fe      -0.01738356       8.58733485       5.73475823
Fe       1.42205630      10.01152462       7.15346987
Fe      -0.03534806       8.57247359       8.54706446
Fe       1.39185951       9.98574324       9.96676744
Fe       4.35399794       1.45730393       1.48389615
Fe       2.86909250      -0.00977037       2.87006691
Fe       4.33845338       1.40814833       4.33406619
Fe       2.87090828      -0.01049238       5.73895268
Fe       4.31379337       1.42830076       7.15146017
Fe       2.86892663      -0.00900371       8.58636839
Fe       4.36994288       1.45736274       9.94161842
Fe       2.89915379       2.81330932      -0.03650342
Fe       4.30124020       4.30360305       1.43791925
Fe       2.91506945       2.83652877       2.92282472
Fe       4.31896093       4.31064769       4.32629056
Fe       2.87240838       2.86730339       5.73281171
Fe       4.31253226       4.30593986       7.14458780
Fe       2.86978578       2.86863457       8.55887273
Fe       4.32034343       4.29532245       9.99158155
Fe       2.90321767       5.74515783      -0.04075498
Fe       4.32025615       7.16587657       1.44419105
Fe       2.90164557       5.75824087       2.91371893
Fe       4.32896387       7.17161367       4.33357789
Fe       2.87165481       5.73234899       5.72705578
Fe       4.31091630       7.15667343       7.14577471
Fe       2.87136828       5.73290329       8.56655525
Fe       4.33162029       7.18187955       9.98007192
Fe       2.86632809       8.59192763      -0.00370714
Fe       4.34489221       9.98581229       1.47047234
Fe       2.87536433       8.57817643       2.88908296
Fe       4.31581498      10.01142719       4.31153266
Fe       2.87056502       8.58741924       5.73502173
Fe       4.30184051      10.00925609       7.15693083
Fe       2.86895641       8.58446743       8.56004448
Fe       4.34289619       9.98035810       9.96870576
Fe       5.72525756      -0.00908145      -0.00677967
Fe       7.16398498       1.42652932       1.44123503
Fe       5.75746384      -0.01681505       2.88778767
Fe       7.16795247       1.42631103       4.31622781
Fe       5.75034862      -0.01523459       5.73661025
Fe       7.16788976       1.43807705       7.14387183
Fe       5.75447434      -0.01485067       8.55732664
Fe       7.16022941       1.42815404       9.99779449
Fe       5.75283471       2.86838722      -0.00709821
Fe       7.17012602       4.30432504       1.43973486
Fe       5.76523944       2.88568427       2.90728002
Fe       7.16778351       4.30906722       4.31917534
Fe       5.74740108       2.86752161       5.73677917
Fe       7.17021045       4.31001376       7.14150827
Fe       5.76982206       2.88865870       8.54193911
Fe       7.16701100       4.30600228       9.99918728
Fe       5.74509784       5.73274315      -0.00909664
Fe       7.16619497       7.15663376       1.43939169
Fe       5.74270595       5.73262582       2.88464166
Fe       7.16762813       7.15474248       4.31721144
Fe       5.73561404       5.73444088       5.73765912
Fe       7.17005851       7.14314314       7.14164504
Fe       5.74793736       5.73339017       8.56378855
Fe       7.16593162       7.15671820      10.00082944
Fe       5.75171614       8.58457624      -0.00657892
Fe       7.15822910      10.01170413       1.44048157
Fe       5.76475112       8.57243946       2.89779066
Fe       7.16883242      10.00961221       4.30444075
Fe       5.74838473       8.58931057       5.73645480
Fe       7.16539844      10.00905195       7.14623452
Fe       5.76597331       8.56765035       8.54575406
Fe       7.15486592      10.00908629      10.00997266
Fe       8.57282260      -0.01055705      -0.00865341
Fe       9.99004592       1.42519810       1.43861255
Fe       8.57576113      -0.01210725       2.88135899
Fe       9.97311242       1.40517401       4.33864886
Fe       8.57268154      -0.01618106       5.73903706
Fe       9.99552300       1.42634704       7.14376138
Fe       8.57508772      -0.01523455       8.56134748
Fe       9.97760144       1.40823589       9.97347982
Fe       8.57897058       2.86739904      -0.01032073
Fe      10.01754170       4.30283631       1.43775331
Fe       8.58263346       2.86553185       2.88262002
Fe       9.98849997       4.30868340       4.32330102
Fe       8.57504508       2.85575552       5.73671646
Fe       9.99252082       4.30906728       7.14391443
Fe       8.57493462       2.86748551       8.56434971
Fe       9.98522068       4.31061736       9.99279785
Fe       8.58464324       5.73252853      -0.00911691
Fe       9.99121778       7.15958555       1.43778305
Fe       8.58810414       5.73479694       2.87066726
Fe       9.97692735       7.17640275       4.33480010
Fe       8.57740783       5.73500119       5.73422508
Fe       9.99451726       7.15476879       7.14407163
Fe       8.57409080       5.73449091       8.57606110
Fe       9.97823774       7.17157954       9.98286490
Fe       8.57665950       8.58741125      -0.00819489
Fe       9.99772847      10.01114976       1.44019498
Fe       8.57694797       8.58737979       2.87974290
Fe       9.99496197      10.01066296       4.31676411
Fe       8.57281830       8.60090989       5.73888516
Fe      10.00723438      10.00956225       7.14291753
Fe       8.57524490       8.58928430       8.56334397
Fe      10.00025311      10.01154019       9.99572237
Au       2.88486443       0.00994883      -0.02256241
Au       1.40861097       4.28388393       1.45369119
128
Lattice="11.44823629749451 0.0 0.0 0.0 11.44823630559279 0.0 0.0 0.0 11.448236301419426" Properties=species:S:1:pos:R:3 pbc="T T T"
Fe      -0.00090003      -0.02203951      -0.02181460
Fe       1.43102952       1.43102945       1.43102952
Fe      -0.02203953      -0.00090007       2.88387380
Fe       1.46582399       1.39630499       4.32655170
Fe      -0.01263564      -0.01719899       5.74140389
Fe       1.43083649       1.43083637       7.15514769
Fe      -0.01719897      -0.01263576       8.56889152
Fe       1.39630511       1.46582391       9.98374373
Fe      -0.02181469       2.88409869      -0.00090026
Fe       1.46575407       4.32655171       1.39623503
Fe       1.47363156       4.35203144       4.35173213
Fe      -0.01137237       2.87359217       5.71030007
Fe       1.43510315       4.31124010       7.14634035
Fe      -0.02904540       2.89104277       8.55827560
Fe       1.43102954       4.31743322       9.99286219
Fe      -0.01263741       5.74134234      -0.01716669
Fe       1.43122258       7.15514773       1.43122260
Fe      -0.01153312       5.71029999       2.87343143
Fe       1.43486951       7.14621913       4.31137901
Fe       0.00239771       5.73792822       5.73805136
Fe       1.43102951       7.15518663       7.15510875
Fe      -0.01370817       5.73163466       8.57459532
Fe       1.42695590       7.16395524       9.99905536
Fe      -0.01716666       8.56895303      -0.01263745
Fe       1.39623495       9.98374367       1.46575397
Fe      -0.02898370       8.55827564       2.89110427
Fe       1.43102952       9.99302501       4.31727044
Fe      -0.01366537       8.57455150       5.73163954
Fe       1.42718955       9.99891631       7.16407622
Fe      -0.03213920       8.55730079       8.55733623
Fe       1.38842753       9.95856320       9.95826419
Fe       4.32655170       1.46575397       1.46582389
Fe       2.88409869      -0.02181463       2.86295923
Fe       4.31743313       1.43102955       4.31743324
Fe       2.89104289      -0.02904526       5.75201979
Fe       4.31124004       1.43510321       7.16395506
Fe       2.87359204      -0.01137236       8.59999540
Fe       4.35203126       1.47363148       9.95856330
Fe       2.88387377       2.86295915      -0.02203962
Fe       4.31727036       4.31727041       1.43102938
Fe       2.86295913       2.88387388       2.88409864
Fe       4.30721102       4.31724733       4.31698579
Fe       2.87922588       2.87469644       5.74134243
Fe       4.31214346       4.31214343       7.15514777
Fe       2.87469654       2.87922578       8.56895294
Fe       4.31724727       4.30721103       9.99330944
Fe       2.89110457       5.75201975      -0.02898374
Fe       4.31137897       7.16407632       1.43486952
Fe       2.87925807       5.74140397       2.87469475
Fe       4.31218722       7.15514764       4.31218720
Fe       2.89419829       5.75295913       5.75299441
Fe       4.31478742       7.15785427       7.15793253
Fe       2.87576728       5.73570015       8.57866085
Fe       4.31601355       7.16800138       9.99417106
Fe       2.87343154       8.59999542      -0.01153307
Fe       4.35173207       9.95826431       1.47363145
Fe       2.87469469       8.56889144       2.87925810
Fe       4.31698582       9.99304817       4.30721099
Fe       2.87572439       8.57865586       5.73574382
Fe       4.31612427       9.99428195       7.16800127
Fe       2.85966138       8.57224416       8.57236709
Fe       4.35473494       9.95556044       9.95556038
Fe       5.71030004      -0.01153308      -0.01137237
Fe       7.15514762       1.43122272       1.43083647
Fe       5.74134235      -0.01263742       2.87922585
Fe       7.16395526       1.42695592       4.31124005
Fe       5.73163451      -0.01370827       5.73570015
Fe       7.15518663       1.43102950       7.15518655
Fe       5.73792821       0.00239765       8.57224401
Fe       7.14621906       1.43486952       9.99891645
Fe       5.74140397       2.87925793      -0.01263577
Fe       7.16407624       4.31137909       1.42718960
Fe       5.75201978       2.89110445       2.89104285
Fe       7.16800140       4.31601359       4.31612429
Fe       5.73570009       2.87576719       5.73163460
Fe       7.15785414       4.31478734       7.15236303
Fe       5.75295934       2.89419853       8.55730091
Fe       7.15514764       4.31218715       9.99810825
Fe       5.73163953       5.73574387      -0.01366539
Fe       7.15510872       7.15510869       1.43102957
Fe       5.73574384       5.73163936       2.87572445
Fe       7.15793252       7.15244117       4.31478741
Fe       5.72306507       5.73649682       5.73647457
Fe       7.15514757       7.15514776       7.15514772
Fe       5.73649678       5.72306511       8.57382070
Fe       7.15244112       7.15793266       9.99550794
Fe       5.73805149       8.57236709       0.00239762
Fe       7.14634019       9.99905525       1.43510319
Fe       5.75299446       8.55733623       2.89419839
Fe       7.15514764       9.99815181       4.31214348
Fe       5.73647462       8.57379858       5.72306507
Fe       7.15236293       9.99550797       7.15785424
Fe       5.75623610       8.55405928       8.55405936
Fe       7.14229392       9.99417103       9.99428186
Fe       8.55827559      -0.02898361      -0.02904526
Fe       9.98374365       1.39623509       1.39630507
Fe       8.56895300      -0.01716682       2.87469650
Fe       9.95856337       1.38842760       4.35203130
Fe       8.55730081      -0.03213921       5.75295910
Fe       9.99891635       1.42718964       7.14621899
Fe       8.57455149      -0.01366533       8.57865589
Fe       9.99302492       1.43102948       9.99302495
Fe       8.56889150       2.87469486      -0.01719890
Fe       9.95826416       4.35173203       1.38842761
Fe       8.59999523       2.87343145       2.87359224
Fe       9.95556035       4.35473486       4.35473492
Fe       8.57224411       2.85966131       5.73792826
Fe       9.99428196       4.31612437       7.14229390
Fe       8.57865584       2.87572437       8.57455144
Fe       9.99304806       4.31698577      10.00308419
Fe       8.55733617       5.75299443      -0.03213921
Fe       9.99905543       7.14634014       1.42695595
Fe       8.57236710       5.73805131       2.85966147
Fe       9.99417100       7.14229402       4.31601360
Fe       8.55405936       5.75623598       5.75623604
Fe       9.99550794       7.15236297       7.15244108
Fe       8.57379855       5.73647449       8.58723029
Fe       9.99815188       7.15514759       9.99815189
Fe       8.57459534       8.57866087      -0.01370823
Fe       9.99286211       9.99286211       1.43102941
Fe       8.57866082       8.57459524       2.87576733
Fe       9.99330943      10.00308446       4.31724726
Fe       8.57382070       8.58723050       5.73649669
Fe       9.99810816       9.99810803       7.15514768
Fe       8.58723037       8.57382069       8.57379864
Fe      10.00308436       9.99330948       9.99304813
Au       2.90977282      -0.04771372      -0.04771369
Au      -0.04771384       2.90977293       2.90977291
