128
Lattice="11.382244239771369 0.0 0.0 0.0 11.382244239771369 0.0 0.0 0.0 11.382244239771369" Properties=species:S:1:pos:R:3 pbc="T T T"
Fe       0.00000000       0.00000000       0.00000000
Fe       0.00000000       0.00000000       2.84556106
Fe       1.42278053       1.42278053       4.26834159
Fe       0.00000000       0.00000000       5.69112212
Fe       1.42278053       1.42278053       7.11390265
Fe       0.00000000       0.00000000       8.53668318
Fe       1.42278053       1.42278053       9.95946371
Fe       0.00000000       2.84556106       0.00000000
Fe       1.42278053       4.26834159       1.42278053
Fe       0.00000000       2.84556106       2.84556106
Fe       1.42278053       4.26834159       4.26834159
Fe       0.00000000       2.84556106       5.69112212
Fe       1.42278053       4.26834159       7.11390265
Fe       0.00000000       2.84556106       8.53668318
Fe       1.42278053       4.26834159       9.95946371
Fe       0.00000000       5.69112212       0.00000000
Fe       1.42278053       7.11390265       1.42278053
Fe       0.00000000       5.69112212       2.84556106
Fe       1.42278053       7.11390265       4.26834159
Fe       0.00000000       5.69112212       5.69112212
Fe       1.42278053       7.11390265       7.11390265
Fe       0.00000000       5.69112212       8.53668318
Fe       1.42278053       7.11390265       9.95946371
Fe       0.00000000       8.53668318       0.00000000
Fe       1.42278053       9.95946371       1.42278053
Fe       0.00000000       8.53668318       2.84556106
Fe       1.42278053       9.95946371       4.26834159
Fe       0.00000000       8.53668318       5.69112212
Fe       1.42278053       9.95946371       7.11390265
Fe       0.00000000       8.53668318       8.53668318
Fe       1.42278053       9.95946371       9.95946371
Fe       4.26834159       1.42278053       1.42278053
Fe       2.84556106       0.00000000       2.84556106
Fe       4.26834159       1.42278053       4.26834159
Fe       2.84556106       0.00000000       5.69112212
Fe       4.26834159       1.42278053       7.11390265
Fe       2.84556106       0.00000000       8.53668318
Fe       4.26834159       1.42278053       9.95946371
Fe       2.84556106       2.84556106       0.00000000
Fe       4.26834159       4.26834159       1.42278053
Fe       2.84556106       2.84556106       2.84556106
Fe       4.26834159       4.26834159       4.26834159
Fe       2.84556106       2.84556106       5.69112212
Fe       4.26834159       4.26834159       7.11390265
Fe       2.84556106       2.84556106       8.53668318
Fe       4.26834159       4.26834159       9.95946371
Fe       2.84556106       5.69112212       0.00000000
Fe       4.26834159       7.11390265       1.42278053
Fe       2.84556106       5.69112212       2.84556106
Fe       4.26834159       7.11390265       4.26834159
Fe       2.84556106       5.69112212       5.69112212
Fe       4.26834159       7.11390265       7.11390265
Fe       2.84556106       5.69112212       8.53668318
Fe       4.26834159       7.11390265       9.95946371
Fe       2.84556106       8.53668318       0.00000000
Fe       4.26834159       9.95946371       1.42278053
Fe       2.84556106       8.53668318       2.84556106
Fe       4.26834159       9.95946371       4.26834159
Fe       2.84556106       8.53668318       5.69112212
Fe       4.26834159       9.95946371       7.11390265
Fe       2.84556106       8.53668318       8.53668318
Fe       4.26834159       9.95946371       9.95946371
Fe       5.69112212       0.00000000       0.00000000
Fe       7.11390265       1.42278053       1.42278053
Fe       5.69112212       0.00000000       2.84556106
Fe       7.11390265       1.42278053       4.26834159
Fe       5.69112212       0.00000000       5.69112212
Fe       7.11390265       1.42278053       7.11390265
Fe       5.69112212       0.00000000       8.53668318
Fe       7.11390265       1.42278053       9.95946371
Fe       5.69112212       2.84556106       0.00000000
Fe       7.11390265       4.26834159       1.42278053
Fe       5.69112212       2.84556106       2.84556106
Fe       7.11390265       4.26834159       4.26834159
Fe       5.69112212       2.84556106       5.69112212
Fe       7.11390265       4.26834159       7.11390265
Fe       5.69112212       2.84556106       8.53668318
Fe       7.11390265       4.26834159       9.95946371
Fe       5.69112212       5.69112212       0.00000000
Fe       7.11390265       7.11390265       1.42278053
Fe       5.69112212       5.69112212       2.84556106
Fe       7.11390265       7.11390265       4.26834159
Fe       5.69112212       5.69112212       5.69112212
Fe       7.11390265       7.11390265       7.11390265
Fe       5.69112212       5.69112212       8.53668318
Fe       7.11390265       7.11390265       9.95946371
Fe       5.69112212       8.53668318       0.00000000
Fe       7.11390265       9.95946371       1.42278053
Fe       5.69112212       8.53668318       2.84556106
Fe       7.11390265       9.95946371       4.26834159
Fe       5.69112212       8.53668318       5.69112212
Fe       7.11390265       9.95946371       7.11390265
Fe       5.69112212       8.53668318       8.53668318
Fe       7.11390265       9.95946371       9.95946371
Fe       8.53668318       0.00000000       0.00000000
Fe       9.95946371       1.42278053       1.42278053
Fe       8.53668318       0.00000000       2.84556106
Fe       9.95946371       1.42278053       4.26834159
Fe       8.53668318       0.00000000       5.69112212
Fe       9.95946371       1.42278053       7.11390265
Fe       8.53668318       0.00000000       8.53668318
Fe       9.95946371       1.42278053       9.95946371
Fe       8.53668318       2.84556106       0.00000000
Fe       9.95946371       4.26834159       1.42278053
Fe       8.53668318       2.84556106       2.84556106
Fe       9.95946371       4.26834159       4.26834159
Fe       8.53668318       2.84556106       5.69112212
Fe       9.95946371       4.26834159       7.11390265
Fe       8.53668318       2.84556106       8.53668318
Fe       9.95946371       4.26834159       9.95946371
Fe       8.53668318       5.69112212       0.00000000
Fe       9.95946371       7.11390265       1.42278053
Fe       8.53668318       5.69112212       2.84556106
Fe       9.95946371       7.11390265       4.26834159
Fe       8.53668318       5.69112212       5.69112212
Fe       9.95946371       7.11390265       7.11390265
Fe       8.53668318       5.69112212       8.53668318
Fe       9.95946371       7.11390265       9.95946371
Fe       8.53668318       8.53668318       0.00000000
Fe       9.95946371       9.95946371       1.42278053
Fe       8.53668318       8.53668318       2.84556106
Fe       9.95946371       9.95946371       4.26834159
Fe       8.53668318       8.53668318       5.69112212
Fe       9.95946371       9.95946371       7.11390265
Fe       8.53668318       8.53668318       8.53668318
Fe       9.95946371       9.95946371       9.95946371
Fe       2.84556106       0.00000000       0.00000000
Fe       1.42278053       1.42278053       1.42278053
128
Lattice="11.382244239771369 0.0 0.0 0.0 11.382244239771369 0.0 0.0 0.0 11.382244239771369" Properties=species:S:1:pos:R:3 pbc="T T T"
Fe       0.00000000       0.00000000       0.00000000
Fe       1.42278053       1.42278053       1.42278053
Fe       0.00000000       0.00000000       2.84556106
Fe       1.42278053       1.42278053       4.26834159
Fe       0.00000000       0.00000000       5.69112212
Fe       1.42278053       1.42278053       7.11390265
Fe       0.00000000       0.00000000       8.53668318
Fe       1.42278053       1.42278053       9.95946371
Fe       0.00000000       2.84556106       0.00000000
Fe       1.42278053       4.26834159       1.42278053
Fe       0.00000000       2.84556106       2.84556106
Fe       1.42278053       4.26834159       4.26834159
Fe       0.00000000       2.84556106       5.69112212
Fe       1.42278053       4.26834159       7.11390265
Fe       0.00000000       2.84556106       8.53668318
Fe       1.42278053       4.26834159       9.95946371
Fe       0.00000000       5.69112212       0.00000000
Fe       1.42278053       7.11390265       1.42278053
Fe       0.00000000       5.69112212       2.84556106
Fe       1.42278053       7.11390265       4.26834159
Fe       0.00000000       5.69112212       5.69112212
Fe       1.42278053       7.11390265       7.11390265
Fe       0.00000000       5.69112212       8.53668318
Fe       1.42278053       7.11390265       9.95946371
Fe       0.00000000       8.53668318       0.00000000
Fe       1.42278053       9.95946371       1.42278053
Fe       0.00000000       8.53668318       2.84556106
Fe       1.42278053       9.95946371       4.26834159
Fe       0.00000000       8.53668318       5.69112212
Fe       1.42278053       9.95946371       7.11390265
Fe       0.00000000       8.53668318       8.53668318
Fe       1.42278053       9.95946371       9.95946371
Fe       4.26834159       1.42278053       1.42278053
Fe       2.84556106       0.00000000       2.84556106
Fe       4.26834159       1.42278053       4.26834159
Fe       2.84556106       0.00000000       5.69112212
Fe       4.26834159       1.42278053       7.11390265
Fe       2.84556106       0.00000000       8.53668318
Fe       4.26834159       1.42278053       9.95946371
Fe       4.26834159       4.26834159       1.42278053
Fe       2.84556106       2.84556106       2.84556106
Fe       4.26834159       4.26834159       4.26834159
Fe       2.84556106       2.84556106       5.69112212
Fe       4.26834159       4.26834159       7.11390265
Fe       2.84556106       2.84556106       8.53668318
Fe       4.26834159       4.26834159       9.95946371
Fe       2.84556106       5.69112212       0.00000000
Fe       4.26834159       7.11390265       1.42278053
Fe       2.84556106       5.69112212       2.84556106
Fe       4.26834159       7.11390265       4.26834159
Fe       2.84556106       5.69112212       5.69112212
Fe       4.26834159       7.11390265       7.11390265
Fe       2.84556106       5.69112212       8.53668318
Fe       4.26834159       7.11390265       9.95946371
Fe       2.84556106       8.53668318       0.00000000
Fe       4.26834159       9.95946371       1.42278053
Fe       2.84556106       8.53668318       2.84556106
Fe       4.26834159       9.95946371       4.26834159
Fe       2.84556106       8.53668318       5.69112212
Fe       4.26834159       9.95946371       7.11390265
Fe       2.84556106       8.53668318       8.53668318
Fe       4.26834159       9.95946371       9.95946371
Fe       5.69112212       0.00000000       0.00000000
Fe       7.11390265       1.42278053       1.42278053
Fe       5.69112212       0.00000000       2.84556106
Fe       7.11390265       1.42278053       4.26834159
Fe       5.69112212       0.00000000       5.69112212
Fe       7.11390265       1.42278053       7.11390265
Fe       5.69112212       0.00000000       8.53668318
Fe       7.11390265       1.42278053       9.95946371
Fe       5.69112212       2.84556106       0.00000000
Fe       7.11390265       4.26834159       1.42278053
Fe       5.69112212       2.84556106       2.84556106
Fe       7.11390265       4.26834159       4.26834159
Fe       5.69112212       2.84556106       5.69112212
Fe       7.11390265       4.26834159       7.11390265
Fe       5.69112212       2.84556106       8.53668318
Fe       7.11390265       4.26834159       9.95946371
Fe       5.69112212       5.69112212       0.00000000
Fe       7.11390265       7.11390265       1.42278053
Fe       5.69112212       5.69112212       2.84556106
Fe       7.11390265       7.11390265       4.26834159
Fe       5.69112212       5.69112212       5.69112212
Fe       7.11390265       7.11390265       7.11390265
Fe       5.69112212       5.69112212       8.53668318
Fe       7.11390265       7.11390265       9.95946371
Fe       5.69112212       8.53668318       0.00000000
Fe       7.11390265       9.95946371       1.42278053
Fe       5.69112212       8.53668318       2.84556106
Fe       7.11390265       9.95946371       4.26834159
Fe       5.69112212       8.53668318       5.69112212
Fe       7.11390265       9.95946371       7.11390265
Fe       5.69112212       8.53668318       8.53668318
Fe       7.11390265       9.95946371       9.95946371
Fe       8.53668318       0.00000000       0.00000000
Fe       9.95946371       1.42278053       1.42278053
Fe       8.53668318       0.00000000       2.84556106
Fe       9.95946371       1.42278053       4.26834159
Fe       8.53668318       0.00000000       5.69112212
Fe       9.95946371       1.42278053       7.11390265
Fe       8.53668318       0.00000000       8.53668318
Fe       9.95946371       1.42278053       9.95946371
Fe       8.53668318       2.84556106       0.00000000
Fe       9.95946371       4.26834159       1.42278053
Fe       8.53668318       2.84556106       2.84556106
Fe       9.95946371       4.26834159       4.26834159
Fe       8.53668318       2.84556106       5.69112212
Fe       9.95946371       4.26834159       7.11390265
Fe       8.53668318       2.84556106       8.53668318
Fe       9.95946371       4.26834159       9.95946371
Fe       8.53668318       5.69112212       0.00000000
Fe       9.95946371       7.11390265       1.42278053
Fe       8.53668318       5.69112212       2.84556106
Fe       9.95946371       7.11390265       4.26834159
Fe       8.53668318       5.69112212       5.69112212
Fe       9.95946371       7.11390265       7.11390265
Fe       8.53668318       5.69112212       8.53668318
Fe       9.95946371       7.11390265       9.95946371
Fe       8.53668318       8.53668318       0.00000000
Fe       9.95946371       9.95946371       1.42278053
Fe       8.53668318       8.53668318       2.84556106
Fe       9.95946371       9.95946371       4.26834159
Fe       8.53668318       8.53668318       5.69112212
Fe       9.95946371       9.95946371       7.11390265
Fe       8.53668318       8.53668318       8.53668318
Fe       9.95946371       9.95946371       9.95946371
Fe       2.84556106       0.00000000       0.00000000
Fe       2.84556106       2.84556106       0.00000000
128
Lattice="11.382244239771369 0.0 0.0 0.0 11.382244239771369 0.0 0.0 0.0 11.382244239771369" Properties=species:S:1:pos:R:3 pbc="T T T"
Fe       0.00000000       0.00000000       0.00000000
Fe       1.42278053       1.42278053       1.42278053
Fe       1.42278053       1.42278053       4.26834159
Fe       0.00000000       0.00000000       5.69112212
Fe       1.42278053       1.42278053       7.11390265
Fe       0.00000000       0.00000000       8.53668318
Fe       1.42278053       1.42278053       9.95946371
Fe       0.00000000       2.84556106       0.00000000
Fe       1.42278053       4.26834159       1.42278053
Fe       0.00000000       2.84556106       2.84556106
Fe       1.42278053       4.26834159       4.26834159
Fe       0.00000000       2.84556106       5.69112212
Fe       1.42278053       4.26834159       7.11390265
Fe       0.00000000       2.84556106       8.53668318
Fe       1.42278053       4.26834159       9.95946371
Fe       0.00000000       5.69112212       0.00000000
Fe       1.42278053       7.11390265       1.42278053
Fe       0.00000000       5.69112212       2.84556106
Fe       1.42278053       7.11390265       4.26834159
Fe       0.00000000       5.69112212       5.69112212
Fe       1.42278053       7.11390265       7.11390265
Fe       0.00000000       5.69112212       8.53668318
Fe       1.42278053       7.11390265       9.95946371
Fe       0.00000000       8.53668318       0.00000000
Fe       1.42278053       9.95946371       1.42278053
Fe       0.00000000       8.53668318       2.84556106
Fe       1.42278053       9.95946371       4.26834159
Fe       0.00000000       8.53668318       5.69112212
Fe       1.42278053       9.95946371       7.11390265
Fe       0.00000000       8.53668318       8.53668318
Fe       1.42278053       9.95946371       9.95946371
Fe       4.26834159       1.42278053       1.42278053
Fe       2.84556106       0.00000000       2.84556106
Fe       4.26834159       1.42278053       4.26834159
Fe       2.84556106       0.00000000       5.69112212
Fe       4.26834159       1.42278053       7.11390265
Fe       2.84556106       0.00000000       8.53668318
Fe       4.26834159       1.42278053       9.95946371
Fe       2.84556106       2.84556106       0.00000000
Fe       4.26834159       4.26834159       1.42278053
Fe       2.84556106       2.84556106       2.84556106
Fe       4.26834159       4.26834159       4.26834159
Fe       2.84556106       2.84556106       5.69112212
Fe       4.26834159       4.26834159       7.11390265
Fe       2.84556106       2.84556106       8.53668318
Fe       4.26834159       4.26834159       9.95946371
Fe       2.84556106       5.69112212       0.00000000
Fe       4.26834159       7.11390265       1.42278053
Fe       2.84556106       5.69112212       2.84556106
Fe       4.26834159       7.11390265       4.26834159
Fe       2.84556106       5.69112212       5.69112212
Fe       4.26834159       7.11390265       7.11390265
Fe       2.84556106       5.69112212       8.53668318
Fe       4.26834159       7.11390265       9.95946371
Fe       2.84556106       8.53668318       0.00000000
Fe       4.26834159       9.95946371       1.42278053
Fe       2.84556106       8.53668318       2.84556106
Fe       4.26834159       9.95946371       4.26834159
Fe       2.84556106       8.53668318       5.69112212
Fe       4.26834159       9.95946371       7.11390265
Fe       2.84556106       8.53668318       8.53668318
Fe       4.26834159       9.95946371       9.95946371
Fe       5.69112212       0.00000000       0.00000000
Fe       7.11390265       1.42278053       1.42278053
Fe       5.69112212       0.00000000       2.84556106
Fe       7.11390265       1.42278053       4.26834159
Fe       5.69112212       0.00000000       5.69112212
Fe       7.11390265       1.42278053       7.11390265
Fe       5.69112212       0.00000000       8.53668318
Fe       7.11390265       1.42278053       9.95946371
Fe       5.69112212       2.84556106       0.00000000
Fe       7.11390265       4.26834159       1.42278053
Fe       5.69112212       2.84556106       2.84556106
Fe       7.11390265       4.26834159       4.26834159
Fe       5.69112212       2.84556106       5.69112212
Fe       7.11390265       4.26834159       7.11390265
Fe       5.69112212       2.84556106       8.53668318
Fe       7.11390265       4.26834159       9.95946371
Fe       5.69112212       5.69112212       0.00000000
Fe       7.11390265       7.11390265       1.42278053
Fe       5.69112212       5.69112212       2.84556106
Fe       7.11390265       7.11390265       4.26834159
Fe       5.69112212       5.69112212       5.69112212
Fe       7.11390265       7.11390265       7.11390265
Fe       5.69112212       5.69112212       8.53668318
Fe       7.11390265       7.11390265       9.95946371
Fe       5.69112212       8.53668318       0.00000000
Fe       7.11390265       9.95946371       1.42278053
Fe       5.69112212       8.53668318       2.84556106
Fe       7.11390265       9.95946371       4.26834159
Fe       5.69112212       8.53668318       5.69112212
Fe       7.11390265       9.95946371       7.11390265
Fe       5.69112212       8.53668318       8.53668318
Fe       7.11390265       9.95946371       9.95946371
Fe       8.53668318       0.00000000       0.00000000
Fe       9.95946371       1.42278053       1.42278053
Fe       8.53668318       0.00000000       2.84556106
Fe       9.95946371       1.42278053       4.26834159
Fe       8.53668318       0.00000000       5.69112212
Fe       9.95946371       1.42278053       7.11390265
Fe       8.53668318       0.00000000       8.53668318
Fe       9.95946371       1.42278053       9.95946371
Fe       8.53668318       2.84556106       0.00000000
Fe       9.95946371       4.26834159       1.42278053
Fe       8.53668318       2.84556106       2.84556106
Fe       9.95946371       4.26834159       4.26834159
Fe       8.53668318       2.84556106       5.69112212
Fe       9.95946371       4.26834159       7.11390265
Fe       8.53668318       2.84556106       8.53668318
Fe       9.95946371       4.26834159       9.95946371
Fe       8.53668318       5.69112212       0.00000000
Fe       9.95946371       7.11390265       1.42278053
Fe       8.53668318       5.69112212       2.84556106
Fe       9.95946371       7.11390265       4.26834159
Fe       8.53668318       5.69112212       5.69112212
Fe       9.95946371       7.11390265       7.11390265
Fe       8.53668318       5.69112212       8.53668318
Fe       9.95946371       7.11390265       9.95946371
Fe       8.53668318       8.53668318       0.00000000
Fe       9.95946371       9.95946371       1.42278053
Fe       8.53668318       8.53668318       2.84556106
Fe       9.95946371       9.95946371       4.26834159
Fe       8.53668318       8.53668318       5.69112212
Fe       9.95946371       9.95946371       7.11390265
Fe       8.53668318       8.53668318       8.53668318
Fe       9.95946371       9.95946371       9.95946371
Fe       2.84556106       0.00000000       0.00000000
Fe       0.00000000       0.00000000       2.84556106
128
Lattice="11.382244239771369 0.0 0.0 0.0 11.382244239771369 0.0 0.0 0.0 11.382244239771369" Properties=species:S:1:pos:R:3 pbc="T T T"
Fe       0.00000000       0.00000000       0.00000000
Fe       1.42278053       1.42278053       1.42278053
Fe       0.00000000       0.00000000       2.84556106
Fe       1.42278053       1.42278053       4.26834159
Fe       0.00000000       0.00000000       5.69112212
Fe       1.42278053       1.42278053       7.11390265
Fe       0.00000000       0.00000000       8.53668318
Fe       1.42278053       1.42278053       9.95946371
Fe       0.00000000       2.84556106       0.00000000
Fe       0.00000000       2.84556106       2.84556106
Fe       1.42278053       4.26834159       4.26834159
Fe       0.00000000       2.84556106       5.69112212
Fe       1.42278053       4.26834159       7.11390265
Fe       0.00000000       2.84556106       8.53668318
Fe       1.42278053       4.26834159       9.95946371
Fe       0.00000000       5.69112212       0.00000000
Fe       1.42278053       7.11390265       1.42278053
Fe       0.00000000       5.69112212       2.84556106
Fe       1.42278053       7.11390265       4.26834159
Fe       0.00000000       5.69112212       5.69112212
Fe       1.42278053       7.11390265       7.11390265
Fe       0.00000000       5.69112212       8.53668318
Fe       1.42278053       7.11390265       9.95946371
Fe       0.00000000       8.53668318       0.00000000
Fe       1.42278053       9.95946371       1.42278053
Fe       0.00000000       8.53668318       2.84556106
Fe       1.42278053       9.95946371       4.26834159
Fe       0.00000000       8.53668318       5.69112212
Fe       1.42278053       9.95946371       7.11390265
Fe       0.00000000       8.53668318       8.53668318
Fe       1.42278053       9.95946371       9.95946371
Fe       4.26834159       1.42278053       1.42278053
Fe       2.84556106       0.00000000       2.84556106
Fe       4.26834159       1.42278053       4.26834159
Fe       2.84556106       0.00000000       5.69112212
Fe       4.26834159       1.42278053       7.11390265
Fe       2.84556106       0.00000000       8.53668318
Fe       4.26834159       1.42278053       9.95946371
Fe       2.84556106       2.84556106       0.00000000
Fe       4.26834159       4.26834159       1.42278053
Fe       2.84556106       2.84556106       2.84556106
Fe       4.26834159       4.26834159       4.26834159
Fe       2.84556106       2.84556106       5.69112212
Fe       4.26834159       4.26834159       7.11390265
Fe       2.84556106       2.84556106       8.53668318
Fe       4.26834159       4.26834159       9.95946371
Fe       2.84556106       5.69112212       0.00000000
Fe       4.26834159       7.11390265       1.42278053
Fe       2.84556106       5.69112212       2.84556106
Fe       4.26834159       7.11390265       4.26834159
Fe       2.84556106       5.69112212       5.69112212
Fe       4.26834159       7.11390265       7.11390265
Fe       2.84556106       5.69112212       8.53668318
Fe       4.26834159       7.11390265       9.95946371
Fe       2.84556106       8.53668318       0.00000000
Fe       4.26834159       9.95946371       1.42278053
Fe       2.84556106       8.53668318       2.84556106
Fe       4.26834159       9.95946371       4.26834159
Fe       2.84556106       8.53668318       5.69112212
Fe       4.26834159       9.95946371       7.11390265
Fe       2.84556106       8.53668318       8.53668318
Fe       4.26834159       9.95946371       9.95946371
Fe       5.69112212       0.00000000       0.00000000
Fe       7.11390265       1.42278053       1.42278053
Fe       5.69112212       0.00000000       2.84556106
Fe       7.11390265       1.42278053       4.26834159
Fe       5.69112212       0.00000000       5.69112212
Fe       7.11390265       1.42278053       7.11390265
Fe       5.69112212       0.00000000       8.53668318
Fe       7.11390265       1.42278053       9.95946371
Fe       5.69112212       2.84556106       0.00000000
Fe       7.11390265       4.26834159       1.42278053
Fe       5.69112212       2.84556106       2.84556106
Fe       7.11390265       4.26834159       4.26834159
Fe       5.69112212       2.84556106       5.69112212
Fe       7.11390265       4.26834159       7.11390265
Fe       5.69112212       2.84556106       8.53668318
Fe       7.11390265       4.26834159       9.95946371
Fe       5.69112212       5.69112212       0.00000000
Fe       7.11390265       7.11390265       1.42278053
Fe       5.69112212       5.69112212       2.84556106
Fe       7.11390265       7.11390265       4.26834159
Fe       5.69112212       5.69112212       5.69112212
Fe       7.11390265       7.11390265       7.11390265
Fe       5.69112212       5.69112212       8.53668318
Fe       7.11390265       7.11390265       9.95946371
Fe       5.69112212       8.53668318       0.00000000
Fe       7.11390265       9.95946371       1.42278053
Fe       5.69112212       8.53668318       2.84556106
Fe       7.11390265       9.95946371       4.26834159
Fe       5.69112212       8.53668318       5.69112212
Fe       7.11390265       9.95946371       7.11390265
Fe       5.69112212       8.53668318       8.53668318
Fe       7.11390265       9.95946371       9.95946371
Fe       8.53668318       0.00000000       0.00000000
Fe       9.95946371       1.42278053       1.42278053
Fe       8.53668318       0.00000000       2.84556106
Fe       9.95946371       1.42278053       4.26834159
Fe       8.53668318       0.00000000       5.69112212
Fe       9.95946371       1.42278053       7.11390265
Fe       8.53668318       0.00000000       8.53668318
Fe       9.95946371       1.42278053       9.95946371
Fe       8.53668318       2.84556106       0.00000000
Fe       9.95946371       4.26834159       1.42278053
Fe       8.53668318       2.84556106       2.84556106
Fe       9.95946371       4.26834159       4.26834159
Fe       8.53668318       2.84556106       5.69112212
Fe       9.95946371       4.26834159       7.11390265
Fe       8.53668318       2.84556106       8.53668318
Fe       9.95946371       4.26834159       9.95946371
Fe       8.53668318       5.69112212       0.00000000
Fe       9.95946371       7.11390265       1.42278053
Fe       8.53668318       5.69112212       2.84556106
Fe       9.95946371       7.11390265       4.26834159
Fe       8.53668318       5.69112212       5.69112212
Fe       9.95946371       7.11390265       7.11390265
Fe       8.53668318       5.69112212       8.53668318
Fe       9.95946371       7.11390265       9.95946371
Fe       8.53668318       8.53668318       0.00000000
Fe       9.95946371       9.95946371       1.42278053
Fe       8.53668318       8.53668318       2.84556106
Fe       9.95946371       9.95946371       4.26834159
Fe       8.53668318       8.53668318       5.69112212
Fe       9.95946371       9.95946371       7.11390265
Fe       8.53668318       8.53668318       8.53668318
Fe       9.95946371       9.95946371       9.95946371
Fe       2.84556106       0.00000000       0.00000000
Fe       1.42278053       4.26834159       1.42278053
128
Lattice="11.382244239771369 0.0 0.0 0.0 11.382244239771369 0.0 0.0 0.0 11.382244239771369" Properties=species:S:1:pos:R:3 pbc="T T T"
Fe       0.00000000       0.00000000       0.00000000
Fe       1.42278053       1.42278053       1.42278053
Fe       0.00000000       0.00000000       2.84556106
Fe       1.42278053       1.42278053       4.26834159
Fe       0.00000000       0.00000000       5.69112212
Fe       1.42278053       1.42278053       7.11390265
Fe       0.00000000       0.00000000       8.53668318
Fe       1.42278053       1.42278053       9.95946371
Fe       0.00000000       2.84556106       0.00000000
Fe       1.42278053       4.26834159       1.42278053
Fe       1.42278053       4.26834159       4.26834159
Fe       0.00000000       2.84556106       5.69112212
Fe       1.42278053       4.26834159       7.11390265
Fe       0.00000000       2.84556106       8.53668318
Fe       1.42278053       4.26834159       9.95946371
Fe       0.00000000       5.69112212       0.00000000
Fe       1.42278053       7.11390265       1.42278053
Fe       0.00000000       5.69112212       2.84556106
Fe       1.42278053       7.11390265       4.26834159
Fe       0.00000000       5.69112212       5.69112212
Fe       1.42278053       7.11390265       7.11390265
Fe       0.00000000       5.69112212       8.53668318
Fe       1.42278053       7.11390265       9.95946371
Fe       0.00000000       8.53668318       0.00000000
Fe       1.42278053       9.95946371       1.42278053
Fe       0.00000000       8.53668318       2.84556106
Fe       1.42278053       9.95946371       4.26834159
Fe       0.00000000       8.53668318       5.69112212
Fe       1.42278053       9.95946371       7.11390265
Fe       0.00000000       8.53668318       8.53668318
Fe       1.42278053       9.95946371       9.95946371
Fe       4.26834159       1.42278053       1.42278053
Fe       2.84556106       0.00000000       2.84556106
Fe       4.26834159       1.42278053       4.26834159
Fe       2.84556106       0.00000000       5.69112212
Fe       4.26834159       1.42278053       7.11390265
Fe       2.84556106       0.00000000       8.53668318
Fe       4.26834159       1.42278053       9.95946371
Fe       2.84556106       2.84556106       0.00000000
Fe       4.26834159       4.26834159       1.42278053
Fe       2.84556106       2.84556106       2.84556106
Fe       4.26834159       4.26834159       4.26834159
Fe       2.84556106       2.84556106       5.69112212
Fe       4.26834159       4.26834159       7.11390265
Fe       2.84556106       2.84556106       8.53668318
Fe       4.26834159       4.26834159       9.95946371
Fe       2.84556106       5.69112212       0.00000000
Fe       4.26834159       7.11390265       1.42278053
Fe       2.84556106       5.69112212       2.84556106
Fe       4.26834159       7.11390265       4.26834159
Fe       2.84556106       5.69112212       5.69112212
Fe       4.26834159       7.11390265       7.11390265
Fe       2.84556106       5.69112212       8.53668318
Fe       4.26834159       7.11390265       9.95946371
Fe       2.84556106       8.53668318       0.00000000
Fe       4.26834159       9.95946371       1.42278053
Fe       2.84556106       8.53668318       2.84556106
Fe       4.26834159       9.95946371       4.26834159
Fe       2.84556106       8.53668318       5.69112212
Fe       4.26834159       9.95946371       7.11390265
Fe       2.84556106       8.53668318       8.53668318
Fe       4.26834159       9.95946371       9.95946371
Fe       5.69112212       0.00000000       0.00000000
Fe       7.11390265       1.42278053       1.42278053
Fe       5.69112212       0.00000000       2.84556106
Fe       7.11390265       1.42278053       4.26834159
Fe       5.69112212       0.00000000       5.69112212
Fe       7.11390265       1.42278053       7.11390265
Fe       5.69112212       0.00000000       8.53668318
Fe       7.11390265       1.42278053       9.95946371
Fe       5.69112212       2.84556106       0.00000000
Fe       7.11390265       4.26834159       1.42278053
Fe       5.69112212       2.84556106       2.84556106
Fe       7.11390265       4.26834159       4.26834159
Fe       5.69112212       2.84556106       5.69112212
Fe       7.11390265       4.26834159       7.11390265
Fe       5.69112212       2.84556106       8.53668318
Fe       7.11390265       4.26834159       9.95946371
Fe       5.69112212       5.69112212       0.00000000
Fe       7.11390265       7.11390265       1.42278053
Fe       5.69112212       5.69112212       2.84556106
Fe       7.11390265       7.11390265       4.26834159
Fe       5.69112212       5.69112212       5.69112212
Fe       7.11390265       7.11390265       7.11390265
Fe       5.69112212       5.69112212       8.53668318
Fe       7.11390265       7.11390265       9.95946371
Fe       5.69112212       8.53668318       0.00000000
Fe       7.11390265       9.95946371       1.42278053
Fe       5.69112212       8.53668318       2.84556106
Fe       7.11390265       9.95946371       4.26834159
Fe       5.69112212       8.53668318       5.69112212
Fe       7.11390265       9.95946371       7.11390265
Fe       5.69112212       8.53668318       8.53668318
Fe       7.11390265       9.95946371       9.95946371
Fe       8.53668318       0.00000000       0.00000000
Fe       9.95946371       1.42278053       1.42278053
Fe       8.53668318       0.00000000       2.84556106
Fe       9.95946371       1.42278053       4.26834159
Fe       8.53668318       0.00000000       5.69112212
Fe       9.95946371       1.42278053       7.11390265
Fe       8.53668318       0.00000000       8.53668318
Fe       9.95946371       1.42278053       9.95946371
Fe       8.53668318       2.84556106       0.00000000
Fe       9.95946371       4.26834159       1.42278053
Fe       8.53668318       2.84556106       2.84556106
Fe       9.95946371       4.26834159       4.26834159
Fe       8.53668318       2.84556106       5.69112212
Fe       9.95946371       4.26834159       7.11390265
Fe       8.53668318       2.84556106       8.53668318
Fe       9.95946371       4.26834159       9.95946371
Fe       8.53668318       5.69112212       0.00000000
Fe       9.95946371       7.11390265       1.42278053
Fe       8.53668318       5.69112212       2.84556106
Fe       9.95946371       7.11390265       4.26834159
Fe       8.53668318       5.69112212       5.69112212
Fe       9.95946371       7.11390265       7.11390265
Fe       8.53668318       5.69112212       8.53668318
Fe       9.95946371       7.11390265       9.95946371
Fe       8.53668318       8.53668318       0.00000000
Fe       9.95946371       9.95946371       1.42278053
Fe       8.53668318       8.53668318       2.84556106
Fe       9.95946371       9.95946371       4.26834159
Fe       8.53668318       8.53668318       5.69112212
Fe       9.95946371       9.95946371       7.11390265
Fe       8.53668318       8.53668318       8.53668318
Fe       9.95946371       9.95946371       9.95946371
Fe       2.84556106       0.00000000       0.00000000
Fe       0.00000000       2.84556106       2.84556106
