128
Lattice="11.370401092755017 0.0 0.0 0.0 11.370401088423582 0.0 0.0 0.0 11.370401088641469" Properties=species:S:1:pos:R:3 pbc="T T T"
Fe       0.03117540       0.02378355       0.02388785
Fe       0.02469812       0.01805920       2.81794826
Fe       1.42481576       1.41773643       4.25253121
Fe       0.00217880       0.00340698       5.67451982
Fe       1.42458113       1.41791189       7.12013854
Fe       0.01333100       0.00630025       8.54589841
Fe       1.44518802       1.39751666       9.98027631
Fe       0.02465199       2.81790215       0.01805916
Fe       1.42486384       4.25253119       1.41778455
Fe       0.01763495       2.82496532       2.82496534
Fe       1.42229787       4.26123326       4.26119946
Fe       0.00769829       2.83495403       5.67442307
Fe       1.42012305       4.26827112       7.10417067
Fe       0.01318321       2.82940119       8.55039453
Fe       1.42767718       4.24589685       9.96243172
Fe       0.00231124       5.67453584       0.00339754
Fe       1.42468839       7.12013853       1.41801920
Fe       0.00764624       5.67442307       2.83490200
Fe       1.42008284       7.10425207       4.26832359
Fe      -0.00072343       5.68794102       5.68790816
Fe       1.41889690       7.10247538       7.10251076
Fe       0.00382608       5.68627082       8.53067066
Fe       1.42469765       7.11716539       9.95141218
Fe       0.01333074       8.54580438       0.00637706
Fe       1.44508364       9.98027632       1.39741228
Fe       0.01319911       8.55039457       2.82941705
Fe       1.42760038       9.96243194       4.24580278
Fe       0.00381752       8.53069081       5.68628996
Fe       1.42470711       9.95127973       7.11718141
Fe       0.00777397       8.53174564       8.53181102
Fe       1.43935930       9.97379907       9.97375297
Fe       4.23272507       1.39741228       1.39751662
Fe       2.81881675       0.02388784       2.81142488
Fe       4.25056968       1.41492307       4.24589686
Fe       2.83921203       0.00328094       5.67156266
Fe       4.26158918       1.41790259       7.11716538
Fe       2.83903658       0.00351557       8.53917005
Fe       4.23924845       1.40324095       9.97379903
Fe       2.81871246       2.81142490       0.02378351
Fe       4.25056939       4.24580280       1.41499988
Fe       2.82454113       2.81794828       2.81790219
Fe       4.25612644       4.25989022       4.25995560
Fe       2.83920277       2.84028904       5.67453586
Fe       4.26007432       4.26103059       7.10543040
Fe       2.83622324       2.82926955       8.54580437
Fe       4.25071722       4.24130669       9.96230004
Fe       2.83931929       5.67156267       0.00338824
Fe       4.26172165       7.11718141       1.41789315
Fe       2.83919331       5.67451981       2.84042151
Fe       4.26008291       7.10541129       4.26101042
Fe       2.84500351       5.68919049       5.68922585
Fe       4.26462383       7.10379308       7.10376024
Fe       2.84377735       5.68753053       8.52343016
Fe       4.25620210       7.11727814       9.95674724
Fe       2.83908464       8.53917005       0.00356371
Fe       4.23920232       9.97375294       1.40324092
Fe       2.83630002       8.54589845       2.82926925
Fe       4.25070137       9.96228413       4.24130664
Fe       2.84381757       8.52337764       5.68744914
Fe       4.25625417       9.95679926       7.11727812
Fe       2.84160258       8.53050180       8.53046800
Fe       4.24626541       9.96673591       9.96673591
Fe       5.67383136       0.00356372       0.00351558
Fe       7.09286283       1.41801916       1.41791191
Fe       5.66719701       0.00637706       2.82926950
Fe       7.10883067       1.42247724       4.26827109
Fe       5.68957124      -0.00117714       5.68753052
Fe       7.11049064       1.42370335       7.10247536
Fe       5.68253338       0.00099769       8.53050177
Fe       7.09581998       1.41789315       9.95127968
Fe       5.66710295       2.82926926       0.00630027
Fe       7.10874931       4.26832362       1.42251744
Fe       5.66260679       2.82941709       2.82940118
Fe       7.09971667       4.25365227       4.25365688
Fe       5.68233073       2.83877417       5.68627082
Fe       7.10102120       4.25695964       7.11196283
Fe       5.68119037       2.83482629       8.53174565
Fe       7.10759009       4.26101041       9.95291846
Fe       5.68962374       5.68744918      -0.00121729
Fe       7.11052598       7.10251073       1.42370337
Fe       5.68231053       5.68628994       2.83878277
Fe       7.10103852       7.11198021       4.25695960
Fe       5.67825980       5.67972107       5.67973840
Fe       7.10251694       7.11048445       7.11048448
Fe       5.67495241       5.67841653       8.53804431
Fe       7.10920827       7.10376024       9.94837754
Fe       5.68249957       8.53046799       0.00099771
Fe       7.09583599       9.95141218       1.41790258
Fe       5.68125571       8.53181104       2.83482625
Fe       7.10757098       9.95292703       4.26103056
Fe       5.67495704       8.53804897       5.67841654
Fe       7.10924112       9.94837753       7.10379306
Fe       5.67499922       8.53800218       8.53800215
Fe       7.09572322       9.95674720       9.95679924
Fe       8.54143869       0.00338828       0.00328094
Fe       9.96047017       1.41778458       1.41773642
Fe       8.53846554       0.00339754       2.84028903
Fe       9.95180194       1.42030240       4.26123321
Fe       8.52377552      -0.00240327       5.68919040
Fe       9.94467778       1.42251739       7.10425206
Fe       8.52555222      -0.00121731       8.52337762
Fe       9.96719858       1.41499990       9.96243194
Fe       8.53848154       2.84042150       0.00340697
Fe       9.95176813       4.26119942       1.42030244
Fe       8.53857828       2.83490195       2.83495400
Fe       9.95930228       4.25369909       4.25369910
Fe       8.52509322       2.84332368       5.68794098
Fe       9.95934907       4.25365689       7.11328467
Fe       8.52671144       2.83878278       8.53069080
Fe       9.95311118       4.25995556       9.95687493
Fe       8.52381090       5.68922583      -0.00240323
Fe       9.94473026       7.10417072       1.42247724
Fe       8.52506038       5.68790815       2.84332370
Fe       9.95934449       7.11328473       4.25365227
Fe       8.53178460       5.68121681       5.68121680
Fe       9.95604172       7.11196288       7.11198018
Fe       8.53328029       5.67973839       8.53474159
Fe       9.95197079       7.10543043       9.95292707
Fe       8.52547078       8.52343013      -0.00117709
Fe       9.96710452       9.96243174       1.41492305
Fe       8.52673055       8.53067067       2.83877417
Fe       9.95304581       9.95687492       4.25989016
Fe       8.53326298       8.53474160       5.67972105
Fe       9.95199094       9.95291848       7.10541127
Fe       8.53458481       8.53804435       8.53804899
Fe       9.97169468       9.96230006       9.96228420
Mn       2.84384603      -0.00124581      -0.00124581
Mn       1.42005434       1.42254603       1.42254596
128
Lattice="11.373673033944495 0.0 0.0 0.0 11.373881912193646 0.0 0.0 0.0 11.37367303492052" Properties=species:S:1:pos:R:3 pbc="T T T"
Fe       0.01530455       0.01360265       0.00001103
Fe       1.44719595       1.42173514       1.39622230
Fe       0.01245163       0.00787440       2.83092036
Fe       1.42631159       1.42180041       4.24321691
Fe       0.00419998       0.00355638       5.68680306
Fe       1.42631157       1.42167005       7.13045612
Fe       0.01249799       0.00787440       8.54270628
Fe       1.44719601       1.42173523       9.97745079
Fe       0.01530452       2.82986774      -0.00001090
Fe       1.44316779       4.23436123       1.40031507
Fe       0.01249787       2.83559617       2.83096671
Fe       1.42546250       4.26488935       4.25616667
Fe       0.00420012       2.83991421       5.68687017
Fe       1.42540933       4.26476947       7.11750205
Fe       0.01245175       2.83559616       8.54275263
Fe       1.44310302       4.23436119       9.97342263
Fe       0.00704985       5.67999469       0.00003115
Fe       1.42941182       7.10867615       1.41400645
Fe       0.01157362       5.68212410       2.83186070
Fe       1.42046673       7.10871839       4.27142739
Fe       0.00700058       5.68138077       5.68684139
Fe       1.42046678       7.10863408       7.10224565
Fe       0.01155756       5.68212426       8.54182844
Fe       1.42941188       7.10867614       9.95966657
Fe       0.00704993       8.53735765      -0.00003127
Fe       1.44310310       9.98299131       1.40025050
Fe       0.01155756       8.53522829       2.83184461
Fe       1.42540923       9.95258292       4.25617094
Fe       0.00700053       8.53597181       5.68683171
Fe       1.42546248       9.95246308       7.11750645
Fe       0.01157361       8.53522826       8.54181238
Fe       1.44316781       9.98299124       9.97335796
Fe       4.23964060       1.42173523       1.39622218
Fe       2.84342934       0.01360265       2.82811373
Fe       4.26052508       1.42167004       4.24321693
Fe       2.84341822       0.00119238       5.68683645
Fe       4.26052511       1.42180042       7.13045615
Fe       2.84340722       0.01360280       8.54555925
Fe       4.23964045       1.42173527       9.97745078
Fe       4.24373347       4.23436112       1.40025044
Fe       2.84340723       2.82986771       2.82811368
Fe       4.26142725       4.26476942       4.25617097
Fe       2.84341830       2.84227817       5.68683655
Fe       4.26137407       4.26488929       7.11750645
Fe       2.84342925       2.82986788       8.54555928
Fe       4.24366875       4.23436117       9.97335793
Fe       2.84341818       5.67149990       0.00000006
Fe       4.25742477       7.10867620       1.41400643
Fe       2.84344944       5.67999462       2.83636843
Fe       4.26636983       7.10863387       4.27142743
Fe       2.84341824       5.68725909       5.68683657
Fe       4.26636974       7.10871831       7.10224556
Fe       2.84338699       5.67999472       8.53730464
Fe       4.25742466       7.10867616       9.95966666
Fe       2.84341823       8.54585246       0.00000009
Fe       4.24366881       9.98299121       1.40031519
Fe       2.84338708       8.53735767       2.83636846
Fe       4.26137407       9.95246313       4.25616669
Fe       2.84341828       8.53009322       5.68683663
Fe       4.26142729       9.95258302       7.11750220
Fe       2.84344946       8.53735751       8.53730467
Fe       4.24373342       9.98299114       9.97342261
Fe       5.67153200       0.01360272      -0.00001109
Fe       7.08663509       1.42180029       1.41710665
Fe       5.67433871       0.00787438       2.83096660
Fe       7.11657678       1.42173528       4.27315865
Fe       5.68263653       0.00355655       5.68686992
Fe       7.11657686       1.42173524       7.10051443
Fe       5.67438488       0.00787434       8.54275276
Fe       7.08663516       1.42167016       9.95656628
Fe       5.67153214       2.82986777       0.00001097
Fe       7.09958491       4.26488935       1.41795575
Fe       5.67438502       2.83559618       2.83092028
Fe       7.10607444       4.26293142       4.26257301
Fe       5.68263643       2.83991413       5.68680286
Fe       7.10599148       4.26293131       7.11101686
Fe       5.67433860       2.83559618       8.54270636
Fe       7.09958916       4.26476937       9.95566407
Fe       5.67978661       5.67999456      -0.00003124
Fe       7.11484569       7.10871838       1.42295144
Fe       5.67527895       5.68212397       2.83184468
Fe       7.09916056       7.10867614       4.25574240
Fe       5.67983594       5.68138057       5.68683166
Fe       7.09916053       7.10867621       7.11793074
Fe       5.67526284       5.68212405       8.54181226
Fe       7.11484568       7.10863395       9.95072169
Fe       5.67978672       8.53735762       0.00003117
Fe       7.09958919       9.95258290       1.41800880
Fe       5.67526281       8.53522824       2.83186065
Fe       7.10599137       9.95442095       4.26265613
Fe       5.67983589       8.53597182       5.68684142
Fe       7.10607440       9.95442103       7.11109987
Fe       5.67527898       8.53522833       8.54182838
Fe       7.09958484       9.95246308       9.95571723
Fe       8.53025478       0.00119252      -0.00000001
Fe       9.97387431       1.42167004       1.41710674
Fe       8.53022118       0.00355644       2.83921826
Fe       9.94393272       1.42173534       4.27315865
Fe       8.53025474      -0.00164181       5.68683650
Fe       9.94393273       1.42173528       7.10051449
Fe       8.53028826       0.00355626       8.53445472
Fe       9.97387446       1.42180034       9.95656631
Fe       8.53025480       2.84227800       0.00000011
Fe       9.96092040       4.26476953       1.41800887
Fe       8.53028833       2.83991417       2.83921823
Fe       9.95451810       4.26293142       4.26265612
Fe       8.53025478       2.84511217       5.68683649
Fe       9.95443511       4.26293133       7.11109997
Fe       8.53022129       2.83991404       8.53445493
Fe       9.96092466       4.26488941       9.95571699
Fe       8.53025476       5.68725900      -0.00000006
Fe       9.94566388       7.10863404       1.42295147
Fe       8.53025963       5.68138068       2.83641756
Fe       9.96134897       7.10867621       4.25574226
Fe       8.53025478       5.68602707       5.68683658
Fe       9.96134892       7.10867613       7.11793074
Fe       8.53024980       5.68138062       8.53725548
Fe       9.94566382       7.10871828       9.95072160
Fe       8.53025494       8.53009336      -0.00000015
Fe       9.96092469       9.95246298       1.41795580
Fe       8.53024992       8.53597185       2.83641774
Fe       9.95443528       9.95442111       4.26257317
Fe       8.53025475       8.53132525       5.68683655
Fe       9.95451817       9.95442105       7.11101698
Fe       8.53025973       8.53597184       8.53725535
Fe       9.96092038       9.95258305       9.95566407
Mn       2.84341834       0.01795008       0.00000002
Mn       2.84341819       2.82552028       0.00000008
128
Lattice="11.369670371376682 0.0 0.0 0.0 11.369457741448725 0.0 0.0 0.0 11.369670368327954" Properties=species:S:1:pos:R:3 pbc="T T T"
Fe       0.01385885      -0.00000000       0.01385886
Fe       1.42120880       1.39269873       1.42120883
Fe       1.40674772       1.39897729       4.23406338
Fe       0.00410054      -0.00002469       5.67209972
Fe       1.42120878       1.41468144       7.10604398
Fe       0.01006834       0.00000205       8.53818489
Fe       1.43566986       1.39897730       9.97802459
Fe       0.00845230       2.82468026       0.00842610
Fe       1.42120884       4.23419061       1.42120886
Fe       0.00522563       2.82388718       2.83721521
Fe       1.41693366       4.25457997       4.26422799
Fe       0.00527826       2.82900515       5.67687127
Fe       1.42120883       4.26951747       7.10604399
Fe       0.00518949       2.83653428       8.53156520
Fe       1.42548395       4.25457991       9.94785998
Fe       0.00201009       5.68472886       0.00201013
Fe       1.42120882       7.13526708       1.42120883
Fe       0.00598250       5.68472893       2.83643512
Fe       1.41700275       7.11496442       4.26421353
Fe       0.00079163       5.68476119       5.68496003
Fe       1.42120881       7.09986579       7.10604400
Fe       0.00452554       5.68474609       8.53166974
Fe       1.42541481       7.11496443       9.94787432
Fe       0.00842613       8.54477749       0.00845230
Fe       1.42120881       9.97675903       1.42120881
Fe       0.00520240       8.54557047       2.83719204
Fe       1.40677249       9.97047772       4.23404856
Fe       0.00525793       8.54047922       5.67684415
Fe       1.42120878       9.95454336       7.10604402
Fe       0.00512042       8.53294493       8.53161223
Fe       1.43564509       9.97047773       9.97803934
Fe       4.23404857       1.39898004       1.40677250
Fe       2.82855879      -0.00000000       2.82855877
Fe       4.24804644       1.41338648       4.24808335
Fe       2.83234928       0.00000208       5.67390300
Fe       4.26191723       1.41598356       7.12009185
Fe       2.83831698      -0.00002470       8.53998821
Fe       4.24879972       1.39983377       9.96320669
Fe       2.83719197       2.82388715       0.00520244
Fe       4.26421353       4.25449332       1.41700282
Fe       2.83396533       2.82468031       2.83399147
Fe       4.26693373       4.26943597       4.26701084
Fe       2.83722808       2.83653426       5.68052278
Fe       4.25953349       4.26064665       7.09946186
Fe       2.83713931       2.82900516       8.53521675
Fe       4.25478478       4.24712356       9.95734082
Fe       2.83643512       5.68472885       0.00598248
Fe       4.26422804       7.11487778       1.41693359
Fe       2.84040747       5.68472883       2.84040742
Fe       4.26701086       7.10002178       4.26693374
Fe       2.83789209       5.68474605       5.68041819
Fe       4.25956242       7.10887630       7.09939706
Fe       2.84162595       5.68476121       8.52712795
Fe       4.25474716       7.12233419       9.95730316
Fe       2.83721515       8.54557054       0.00522555
Fe       4.23406342       9.97048039       1.40674776
Fe       2.83399146       8.54477750       2.83396529
Fe       4.24808346       9.95607122       4.24804644
Fe       2.83729714       8.53294493       5.68047583
Fe       4.26193652       9.95353085       7.12015502
Fe       2.83715967       8.54047933       8.53524382
Fe       4.24888128       9.96962395       9.96328818
Fe       5.67209981       0.00002473       0.00410057
Fe       7.10604403       1.41491436       1.42120880
Fe       5.67390304      -0.00000205       2.83234926
Fe       7.12015494       1.41592685       4.26193640
Fe       5.68549093       0.00000000       5.68549085
Fe       7.10604397       1.42220035       7.10604402
Fe       5.67879090      -0.00000002       8.53329712
Fe       7.09193305       1.41592686       9.95015153
Fe       5.67684412       2.82897849       0.00525792
Fe       7.10604398       4.26959189       1.42120878
Fe       5.68047575       2.83651280       2.83729716
Fe       7.09939695       4.26058138       4.25956243
Fe       5.67968964       2.83150842       5.67971521
Fe       7.10604395       4.25314930       7.10604394
Fe       5.67817758       2.83334839       8.53389451
Fe       7.11269101       4.26058135       9.95252552
Fe       5.68495996       5.68469661       0.00079165
Fe       7.10604397       7.09994022       1.42120870
Fe       5.68041817       5.68471166       2.83789207
Fe       7.09946184       7.10881114       4.25953352
Fe       5.68348476       5.68472884       5.68348480
Fe       7.10604397       7.11630842       7.10604399
Fe       5.67945970       5.68472887       8.53262823
Fe       7.11262620       7.10881115       9.95255443
Fe       5.67687128       8.54045250       0.00527827
Fe       7.10604399       9.95477628       1.42120879
Fe       5.68052279       8.53292350       2.83722807
Fe       7.12009182       9.95347418       4.26191730
Fe       5.67971523       8.53794939       5.67968964
Fe       7.10604397       9.94725737       7.10604401
Fe       5.67819350       8.53610937       8.53391040
Fe       7.09199612       9.95347418       9.95017065
Fe       8.53818496      -0.00000206       0.01006830
Fe       9.97803933       1.39898001       1.43564509
Fe       8.53998819       0.00002469       2.83831703
Fe       9.96328817       1.39983377       4.24888135
Fe       8.53329716      -0.00000001       5.67879076
Fe       9.95017068       1.41598358       7.09199602
Fe       8.52659704       0.00000001       8.52659712
Fe       9.96404152       1.41338651       9.96400458
Fe       8.53161221       2.83651279       0.00512040
Fe       9.94787432       4.25449334       1.42541480
Fe       8.53524381       2.82897850       2.83715965
Fe       9.95730314       4.24712355       4.25474720
Fe       8.53391045       2.83334840       5.67819345
Fe       9.95255444       4.26064663       7.11262610
Fe       8.53239827       2.83150834       8.53237272
Fe       9.94515426       4.26943591       9.94507719
Fe       8.53166976       5.68471165       0.00452557
Fe       9.94785996       7.11487776       1.42548399
Fe       8.52712801       5.68469652       2.84162599
Fe       9.95734082       7.12233417       4.25478475
Fe       8.53262826       5.68472881       5.67945974
Fe       9.95252556       7.10887627       7.11269097
Fe       8.52860319       5.68472888       8.52860321
Fe       9.94507714       7.10002186       9.94515423
Fe       8.53156517       8.53292349       0.00518952
Fe       9.97802460       9.97048039       1.43566985
Fe       8.53521673       8.54045257       2.83713933
Fe       9.96320665       9.96962388       4.24879978
Fe       8.53389450       8.53610936       5.67817749
Fe       9.95015159       9.95353088       7.09193306
Fe       8.53237271       8.53794935       8.53239835
Fe       9.96400455       9.95607119       9.96404152
Mn       2.83518684      -0.00000003       0.00723071
Mn       0.00723077      -0.00000008       2.83518686
128
Lattice="11.368248916781543 0.0 0.0 0.0 11.36910797867213 0.0 0.0 0.0 11.368248918221369" Properties=species:S:1:pos:R:3 pbc="T T T"
Fe       0.02150736       0.01279569       0.00332570
Fe       1.43863558       1.41228155       1.40346058
Fe       0.01198055       0.01253619       2.83005204
Fe       1.42523036       1.42750491       4.24231300
Fe       0.00080196      -0.00235058       5.68603999
Fe       1.42540489       1.41807679       7.11772358
Fe       0.00814080      -0.00194990       8.53127684
Fe       1.43833911       1.40887010       9.97073225
Fe       0.02351445       2.85454537       0.01730794
Fe       0.02285402       2.85698484       2.81919248
Fe       1.42197802       4.26557070       4.25261662
Fe       0.00989022       2.84116083       5.67082906
Fe       1.42092699       4.26647195       7.10265796
Fe       0.00937353       2.84171140       8.54248337
Fe       1.42435689       4.25061982       9.96872530
Fe       0.02077730       5.66360464       0.01868769
Fe       1.42606214       7.10175323       1.41610155
Fe       0.02311248       5.66680549       2.81896704
Fe       1.42163518       7.09491008       4.25811148
Fe       0.00597393       5.67967794       5.67089801
Fe       1.42051155       7.10188534       7.10233234
Fe       0.00957356       5.68044302       8.54428549
Fe       1.42538151       7.10904343       9.95940906
Fe       0.01219119       8.52348003       0.00435040
Fe       1.44068251       9.97051730       1.40135755
Fe       0.01055351       8.51884277       2.83146147
Fe       1.42552441       9.95187588       4.24933708
Fe       0.00537768       8.53486805       5.68609109
Fe       1.42493245       9.95202490       7.11707168
Fe       0.00613327       8.53465443       8.53011046
Fe       1.43971882       9.96891881       9.96799508
Fe       4.23970531       1.40879549       1.40372225
Fe       2.83872098       0.01282895       2.82051206
Fe       4.25377693       1.42165582       4.24675387
Fe       2.84216735      -0.00310358       5.68656707
Fe       4.25311506       1.42231453       7.11846992
Fe       2.84105562      -0.00211647       8.53665603
Fe       4.24022366       1.40643058       9.97007183
Fe       2.82449178       2.85113387       0.01760446
Fe       4.24154327       4.25058655       1.41768981
Fe       2.82475337       2.85462002       2.81867427
Fe       4.25496076       4.26528982       4.25810328
Fe       2.83760462       2.84526465       5.67160924
Fe       4.26230224       4.26581795       7.10327805
Fe       2.83792119       2.83595034       8.54696824
Fe       4.25108315       4.25087938       9.95919843
Fe       2.82238877       5.66200627       0.01965136
Fe       4.25097282       7.10902049       1.41662393
Fe       2.82342168       5.66350052       2.82130472
Fe       4.25696916       7.09780803       4.25911367
Fe       2.83821989       5.68041675       5.67221170
Fe       4.25771113       7.09771762       7.10310438
Fe       2.83747530       5.68074966       8.53993272
Fe       4.25249260       7.11368075       9.95777136
Fe       2.83713266       8.53077020       0.00503106
Fe       4.24233586       9.96902294       1.40239053
Fe       2.83765508       8.52350311       2.82994158
Fe       4.25345163       9.95206114       4.24501687
Fe       2.84257575       8.53056936       5.68699662
Fe       4.25718110       9.95291658       7.11837691
Fe       2.84144432       8.53766948       8.53120783
Fe       4.23999808       9.96571798       9.97033016
Fe       5.67364774      -0.00215516       0.00094700
Fe       7.09264033       1.41815089       1.41657352
Fe       5.67913439      -0.00187430       2.83392959
Fe       7.10811536       1.42655522       4.26069527
Fe       5.67835648       0.00442911       5.67963066
Fe       7.10833477       1.42230393       7.10193358
Fe       5.67076470       0.00628968       8.53955937
Fe       7.09186019       1.42225453       9.95710801
Fe       5.66334419       2.83591067       0.00419925
Fe       7.10759821       4.26651909       1.42113626
Fe       5.66778491       2.84175964       2.83274586
Fe       7.10066179       4.25898626       4.25732541
Fe       5.68172629       2.83686035       5.68708429
Fe       7.10027041       4.25934402       7.11002625
Fe       5.68180324       2.83578163       8.52859328
Fe       7.10707112       4.26576615       9.94801983
Fe       5.67036819       5.68064762       0.00449325
Fe       7.10802783       7.10195417       1.42154462
Fe       5.66604805       5.68046228       2.83242048
Fe       7.09965955       7.10492170       4.25227266
Fe       5.68501310       5.68487986       5.68638136
Fe       7.10016908       7.10957596       7.11013115
Fe       5.68132602       5.68498848       8.52892255
Fe       7.10712216       7.09765541       9.95259543
Fe       5.67914260       8.53761341       0.00060403
Fe       7.09324285       9.95210667       1.41718883
Fe       5.68014481       8.53471549       2.83593800
Fe       7.10741248       9.94764366       4.26398204
Fe       5.67330379       8.52760187       5.67862845
Fe       7.10751321       9.94691299       7.10285010
Fe       5.67243235       8.52801504       8.53787049
Fe       7.09192913       9.95284561       9.95319169
Fe       8.52368907      -0.00305645      -0.00010406
Fe       9.96799949       1.42746507       1.41688997
Fe       8.52430905      -0.00240244       2.84127111
Fe       9.94962436       1.42763388       4.26077212
Fe       8.53105736       0.00407146       5.67923930
Fe       9.94954157       1.42654010       7.10227192
Fe       8.53069987       0.00438283       8.53194662
Fe       9.96351443       1.42170405       9.95659145
Fe       8.53875472       2.84533871       0.00437375
Fe       9.95768707       4.26553197       1.42002453
Fe       8.53950096       2.84110082       2.83208399
Fe       9.96059047       4.25712584       4.24973364
Fe       8.52296464       2.84111165       5.68730368
Fe       9.95297771       4.25903264       7.10966880
Fe       8.52330301       2.83687543       8.52851054
Fe       9.95230790       4.26536532       9.95535857
Fe       8.53810279       5.68049861       0.00390134
Fe       9.95223892       7.09485396       1.42041324
Fe       8.53940797       5.67960686       2.83615001
Fe       9.95890168       7.10450852       4.25140127
Fe       8.52388117       5.68561050       5.68648209
Fe       9.95803906       7.10492527       7.11064836
Fe       8.52386476       5.68489143       8.52535948
Fe       9.95114158       7.09786907       9.95335103
Fe       8.52336344       8.53063811      -0.00051950
Fe       9.96096378       9.95177384       1.41644415
Fe       8.52413557       8.53480584       2.83668003
Fe       9.94995359       9.94753499       4.26029506
Fe       8.53116218       8.52294744       5.67913804
Fe       9.94639058       9.94763200       7.10283359
Fe       8.53167953       8.52759828       8.53700789
Fe       9.96531658       9.95208039       9.95679131
Mn       2.84157960       0.00588690       0.00036726
Mn       1.42139841       4.25752853       1.42054835
128
Lattice="11.365744360329591 0.0 0.0 0.0 11.365744358886024 0.0 0.0 0.0 11.365744353801604" Properties=species:S:1:pos:R:3 pbc="T T T"
Fe       0.01974667       0.00720341       0.00712698
Fe       1.42071807       1.42071806       1.42071806
Fe       0.00720343       0.01974662       2.83430915
Fe       1.40616410       1.43536161       4.23182424
Fe       0.00143304       0.00972690       5.67450718
Fe       1.42064402       1.42064399       7.10359025
Fe       0.00972689       0.00143300       8.53267327
Fe       1.43536157       1.40616403       9.97535618
Fe       0.00712699       2.83423266       0.01974662
Fe       1.40607447       4.23182423       1.43527209
Fe       1.39927924       4.24389065       4.24390174
Fe       0.00851289       2.83285942       5.67126832
Fe       1.41696762       4.26132787       7.08929016
Fe       0.00605739       2.83538589       8.52991611
Fe       1.42071804       4.24673493       9.96044550
Fe       0.00141550       5.67462748       0.00973175
Fe       1.42079212       7.10359021       1.42079205
Fe       0.00857674       5.67126831       2.83292320
Fe       1.41690859       7.08931978       4.26147942
Fe       0.00243384       5.67503827       5.67502194
Fe       1.42071805       7.10352548       7.10365495
Fe       0.00478569       5.68161214       8.52938962
Fe       1.42446854       7.11789023       9.94585266
Fe       0.00973169       8.53255294       0.00141554
Fe       1.43527203       9.97535622       1.40607449
Fe       0.00605012       8.52991614       2.83537872
Fe       1.42071801       9.96041542       4.24676505
Fe       0.00476025       8.52935116       5.68163768
Fe       1.42452748       9.94570112       7.11786061
Fe       0.00696922       8.53084009       8.53086640
Fe       1.44215685       9.96327874       9.96328979
Fe       4.23182421       1.40607448       1.40616401
Fe       2.83423268       0.00712699       2.82168942
Fe       4.24673490       1.42071800       4.24673493
Fe       2.83538594       0.00605741       5.67726437
Fe       4.26132782       1.41696765       7.11789033
Fe       2.83285941       0.00851284       8.53591206
Fe       4.24389061       1.39927924       9.96327864
Fe       2.83430918       2.82168946       0.00720347
Fe       4.24676502       4.24676505       1.42071800
Fe       2.82168943       2.83430914       2.83423263
Fe       4.24915896       4.26035404       4.26037557
Fe       2.83170439       2.84002051       5.67462754
Fe       4.26477522       4.26477515       7.10359026
Fe       2.84002054       2.83170438       8.53255295
Fe       4.26035402       4.24915902       9.94680489
Fe       2.83537868       5.67726434       0.00605015
Fe       4.26147938       7.11786064       1.41690859
Fe       2.83170916       5.67450716       2.84000311
Fe       4.26467248       7.10359025       4.26467250
Fe       2.83446687       5.67631401       5.67634040
Fe       4.25793892       7.09552326       7.09551396
Fe       2.83665042       5.67779079       8.52556836
Fe       4.25194184       7.11258887       9.95516902
Fe       2.83292324       8.53591205       0.00857672
Fe       4.24390174       9.96328980       1.39927915
Fe       2.84000309       8.53267328       2.83170912
Fe       4.26037559       9.94682637       4.24915901
Fe       2.83667581       8.52554281       5.67782932
Fe       4.25201139       9.95523862       7.11258884
Fe       2.83900228       8.53215851       8.53214227
Fe       4.23865671       9.96852364       9.96852372
Fe       5.67126839       0.00857667       0.00851291
Fe       7.10359019       1.42079208       1.42064401
Fe       5.67462752       0.00141563       2.83170439
Fe       7.11789027       1.42446845       4.26132786
Fe       5.68161203       0.00478570       5.67779078
Fe       7.10352549       1.42071807       7.10352551
Fe       5.67503827       0.00243389       8.53215846
Fe       7.08931978       1.41690864       9.94570106
Fe       5.67450717       2.83170915       0.00143302
Fe       7.11786064       4.26147945       1.42452752
Fe       5.67726433       2.83537870       2.83538595
Fe       7.11258884       4.25194183       4.25201139
Fe       5.67779078       2.83665042       5.68161210
Fe       7.09552328       4.25793890       7.11166655
Fe       5.67631405       2.83446684       8.53084013
Fe       7.10359021       4.26467252       9.94250793
Fe       5.68163773       5.67782933       0.00476027
Fe       7.10365499       7.10365500       1.42071806
Fe       5.67782932       5.68163769       2.83667578
Fe       7.09551391       7.11165714       4.25793897
Fe       5.68127366       5.67658673       5.67655362
Fe       7.10359021       7.10359018       7.10359018
Fe       5.67658673       5.68127367       8.53062683
Fe       7.11165721       7.09551391       9.94924148
Fe       5.67502199       8.53214222       0.00243384
Fe       7.08929018       9.94585262       1.41696758
Fe       5.67634037       8.53086639       2.83446690
Fe       7.10359022       9.94240525       4.26477520
Fe       5.67655361       8.53059373       5.68127367
Fe       7.11166655       9.94924153       7.09552325
Fe       5.67529599       8.53188445       8.53188446
Fe       7.09459164       9.95516902       9.95523862
Fe       8.52991611       0.00605013       0.00605741
Fe       9.97535621       1.43527207       1.43536155
Fe       8.53255290       0.00973173       2.84002051
Fe       9.96327869       1.44215696       4.24389061
Fe       8.53084010       0.00696921       5.67631406
Fe       9.94570105       1.42452750       7.08931974
Fe       8.52935114       0.00476026       8.52554275
Fe       9.96041543       1.42071804       9.96041541
Fe       8.53267330       2.84000308       0.00972695
Fe       9.96328982       4.24390176       1.44215688
Fe       8.53591203       2.83292322       2.83285942
Fe       9.96852373       4.23865679       4.23865676
Fe       8.53215847       2.83900221       5.67503820
Fe       9.95523862       4.25201146       7.09459160
Fe       8.52554273       2.83667585       8.52935112
Fe       9.94682640       4.26037553       9.95802144
Fe       8.53086644       5.67634037       0.00696923
Fe       9.94585262       7.08929020       1.42446847
Fe       8.53214222       5.67502193       2.83900228
Fe       9.95516906       7.09459157       4.25194183
Fe       8.53188447       5.67529598       5.67529599
Fe       9.94924156       7.11166654       7.11165722
Fe       8.53059372       5.67655367       8.52590673
Fe       9.94240525       7.10359023       9.94240527
Fe       8.52938964       8.52556833       0.00478566
Fe       9.96044553       9.96044550       1.42071805
Fe       8.52556837       8.52938965       2.83665039
Fe       9.94680494       9.95802144       4.26035400
Fe       8.53062679       8.52590680       5.67658673
Fe       9.94250793       9.94250792       7.10359018
Fe       8.52590674       8.53062680       8.53059370
Fe       9.95802143       9.94680488       9.94682640
Mn       2.83406156       0.00737459       0.00737459
Mn       0.00737457       2.83406152       2.83406155
