127
Lattice="11.360620729050565 0.0 0.0 0.0 11.3606207244875 0.0 0.0 0.0 11.360620719733966" Properties=species:S:1:pos:R:3 pbc="T T T"
Fe       0.08977243       0.06013984       0.05973174
Fe       0.06847484       0.04978167       2.77178281
Fe       1.42395028       1.41618243       4.29523343
Fe      -0.00153584      -0.00350514       5.67819710
Fe       1.42293790       1.41717082       7.10798042
Fe       0.00557538      -0.00470654       8.52547574
Fe       1.43926984       1.40116482       9.89430923
Fe       0.06837242       2.77168011       0.04978159
Fe       1.42397281       4.29523356       1.41620476
Fe       0.06160641       2.77854872       2.77854875
Fe       1.42038982       4.24910850       4.24910212
Fe       0.00122379       2.83898373       5.68144547
Fe       1.42135727       4.25411084       7.09539870
Fe      -0.00116523       2.84114622       8.52116189
Fe       1.42804394       4.23369353       9.95679374
Fe      -0.00147908       5.67810748      -0.00344322
Fe       1.42298448       7.10798025       1.41721733
Fe       0.00117146       5.68144541       2.83893126
Fe       1.42131909       7.09542637       4.25416206
Fe       0.00364723       5.68022961       5.68026012
Fe       1.42120823       7.09825064       7.09841157
Fe       0.00743048       5.67533449       8.52492406
Fe       1.42587836       7.10830402       9.95224955
Fe       0.00536810       8.52527797      -0.00473534
Fe       1.43899033       9.89430919       1.40088538
Fe      -0.00099114       8.52116192       2.84132040
Fe       1.42783754       9.95653544       4.23388263
Fe       0.00743311       8.52484898       5.67546760
Fe       1.42597270       9.95217202       7.10844173
Fe       0.00953854       8.53013254       8.53027757
Fe       1.45001105       9.97653708       9.97680617
Fe       4.30646658       1.40088519       1.40116494
Fe       2.78001545       0.05973180       2.75038288
Fe       4.24398215       1.41211120       4.23369334
Fe       2.84046269      -0.00051741       5.67285852
Fe       4.24852632       1.41427690       7.10830404
Fe       2.84259226      -0.00250005       8.53361232
Fe       4.22396973       1.39014400       9.97653709
Fe       2.78042349       2.75038286       0.06013973
Fe       4.24424044       4.23388259       1.41231754
Fe       2.79037354       2.77178268       2.77168021
Fe       4.24165759       4.24316635       4.24313992
Fe       2.84359843       2.84163452       5.67810746
Fe       4.25870655       4.25780080       7.09497605
Fe       2.84489057       2.83478710       8.52527787
Fe       4.23136572       4.22242609       9.96947836
Fe       2.84067264       5.67285856      -0.00030757
Fe       4.24860395       7.10844173       1.41418254
Fe       2.84366026       5.67819707       2.84169082
Fe       4.25857270       7.09498997       4.25770004
Fe       2.84053452       5.68006295       5.68011859
Fe       4.25923598       7.09955048       7.09951960
Fe       2.84079730       5.67690764       8.51983518
Fe       4.24889127       7.11101445       9.95187603
Fe       2.84265510       8.53361241      -0.00243710
Fe       4.22423873       9.97680622       1.39014414
Fe       2.84486178       8.52547582       2.83457991
Fe       4.23129754       9.96941030       4.22242602
Fe       2.84085997       8.51972436       5.67694691
Fe       4.24889984       9.95188467       7.11101449
Fe       2.84169448       8.53004679       8.53007941
Fe       4.20072759      10.00004841      10.00004835
Fe       5.66716346      -0.00243710      -0.00249994
Fe       7.09279550       1.41721730       1.41717070
Fe       5.67549785      -0.00473530       2.83478695
Fe       7.10537710       1.41879805       4.25411077
Fe       5.68094073      -0.00064223       5.67690757
Fe       7.10236428       1.41894707       7.09825063
Fe       5.67069646      -0.00153928       8.53004683
Fe       7.09233418       1.41418244       9.95217202
Fe       5.67530020       2.83457980      -0.00470652
Fe       7.10534944       4.25416203       1.41883590
Fe       5.67961400       2.84132025       2.84114621
Fe       7.09872353       4.25331197       4.25326176
Fe       5.67585179       2.83272478       5.67533453
Fe       7.09418812       4.25130241       7.10644069
Fe       5.67049832       2.83061652       8.53013248
Fe       7.10578601       4.25770012       9.94220332
Fe       5.68105149       5.67694689      -0.00070471
Fe       7.10252525       7.09841157       1.41894708
Fe       5.67592698       5.67546771       2.83272194
Fe       7.09433533       7.10658776       4.25130241
Fe       5.67252566       5.67317456       5.67306142
Fe       7.09062944       7.11014642       7.11014649
Fe       5.66368670       5.66882962       8.53711723
Fe       7.10122545       7.09951960       9.94153987
Fe       5.67072907       8.53007951      -0.00153932
Fe       7.09247192       9.95224955       1.41427678
Fe       5.67064337       8.53027751       2.83061661
Fe       7.10579991       9.94206916       4.25780087
Fe       5.66365870       8.53708926       5.66882964
Fe       7.10125625       9.94153992       7.09955052
Fe       5.65709063       8.54368552       8.54368532
Fe       7.08976144       9.95187600       9.95188465
Fe       8.52791738      -0.00030745      -0.00051738
Fe       9.90554244       1.41620482       1.41618237
Fe       8.52266852      -0.00344330       2.84163445
Fe       9.95167372       1.41976540       4.24910839
Fe       8.52065744      -0.00037942       5.68006297
Fe       9.94661387       1.41883610       7.09542636
Fe       8.52382896      -0.00070468       8.51972437
Fe       9.96689352       1.41231750       9.95653555
Fe       8.52257878       2.84169090      -0.00350518
Fe       9.95166753       4.24910208       1.41976541
Fe       8.51933054       2.83893142       2.83898368
Fe       9.96134557       4.23943021       4.23943022
Fe       8.52051570       2.83650798       5.68022973
Fe       9.94746382       4.25326179       7.10205239
Fe       8.52530827       2.83272189       8.52484895
Fe       9.95760949       4.24313990       9.95911833
Fe       8.52071291       5.68011845      -0.00037937
Fe       9.94666513       7.09539874       1.41879803
Fe       8.52054627       5.68026015       2.83650796
Fe       9.94751406       7.10205231       4.25331201
Fe       8.52414796       5.67662791       5.67662794
Fe       9.94947339       7.10644056       7.10658782
Fe       8.52760136       5.67306144       8.52825030
Fe       9.94297520       7.09497618       9.94206920
Fe       8.52386841       8.51983512      -0.00064220
Fe       9.96708252       9.95679364       1.41211126
Fe       8.52544138       8.52492394       2.83272475
Fe       9.95763601       9.95911829       4.24316633
Fe       8.52771442       8.52825025       5.67317459
Fe       9.94307583       9.94220333       7.09498991
Fe       8.53194632       8.53711720       8.53708930
Fe       9.97835001       9.96947825       9.96941024
Mn       2.72647588       0.11367924       0.11367925
127
Lattice="11.359579622593108 0.0 0.0 0.0 11.372157566043018 0.0 0.0 0.0 11.359579630414204" Properties=species:S:1:pos:R:3 pbc="T T T"
Fe       0.02939621       0.01275739       0.00003431
Fe       1.49115685       1.46022513       1.34900841
Fe       0.03139236       0.01684596       2.80853702
Fe       1.42230408       1.41432072       4.24737335
Fe       0.00515163       0.00463332       5.67983981
Fe       1.42228733       1.41421752       7.11236769
Fe       0.03135796       0.01684598       8.55107715
Fe       1.49088634       1.46022516      10.01084160
Fe      -0.03464871       2.83409457      -0.00017625
Fe       1.47651150       4.20013322       1.36331024
Fe       0.01831825       2.83692876       2.82151962
Fe       1.41926132       4.27012387       4.26257176
Fe       0.01488625       2.83811527       5.67981715
Fe       1.41929037       4.26998881       7.09701883
Fe       0.01837535       2.83692893       8.53800296
Fe       1.47658450       4.20013315       9.99619635
Fe       0.01264216       5.67655197      -0.00001532
Fe       1.41955625       7.12275021       1.42033726
Fe       0.02265215       5.66759553       2.81724193
Fe       1.41950854       7.10232316       4.26441869
Fe       0.00595455       5.67869570       5.67980265
Fe       1.41950203       7.10218459       7.09522313
Fe       0.02265294       5.66759549       8.54233689
Fe       1.41955753       7.12275015       9.93924088
Fe       0.01436454       8.53844413       0.00001237
Fe       1.43486794       9.96048835       1.40522851
Fe       0.00696633       8.53227904       2.83292113
Fe       1.42599465       9.95338434       4.24616580
Fe       0.00578896       8.53433354       5.67979040
Fe       1.42598005       9.95327710       7.11348773
Fe       0.00697382       8.53227912       8.52665108
Fe       1.43466643       9.96048848       9.95455247
Fe       4.18890344       1.46022511       1.34873811
Fe       2.83992919       0.01275745       2.81049862
Fe       4.25750259       1.41421750       4.24721203
Fe       2.83989488       0.00919701       5.67978994
Fe       4.25748547       1.41432076       7.11220604
Fe       2.83986057       0.01275746       8.54908086
Fe       4.18863298       1.46022506      10.01057115
Fe       4.20320508       4.20013313       1.36338346
Fe       2.83971861       2.83409450       2.87454342
Fe       4.26049948       4.26998873       4.26256069
Fe       2.83989496       2.84363160       5.67978982
Fe       4.26052837       4.27012358       7.09700798
Fe       2.84007123       2.83409438       8.48503611
Fe       4.20327835       4.20013313       9.99626938
Fe       2.83989475       5.73540681      -0.00000000
Fe       4.26023213       7.12275032       1.42033871
Fe       2.83987952       5.67655201       2.82725267
Fe       4.26028756       7.10218452       4.26435645
Fe       2.83989480       5.67631754       5.67978972
Fe       4.26028114       7.10232326       7.09516096
Fe       2.83991023       5.67655179       8.53232703
Fe       4.26023366       7.12275032       9.93924231
Fe       2.83989496       8.54557072       0.00000015
Fe       4.24512346       9.96048838       1.40502718
Fe       2.83990713       8.53844414       2.82553037
Fe       4.25380972       9.95327710       4.24609214
Fe       2.83989483       8.52803631       5.67978983
Fe       4.25379533       9.95338442       7.11341388
Fe       2.83988278       8.53844409       8.53404927
Fe       4.24492216       9.96048832       9.95435107
Fe       5.65039351       0.01275741      -0.00003418
Fe       7.08726843       1.41432091       1.41759065
Fe       5.64843175       0.01684602       2.80850263
Fe       7.10219568       1.42235007       4.26223264
Fe       5.67463801       0.00463344       5.67973975
Fe       7.10212730       1.42234997       7.09727866
Fe       5.64839748       0.01684606       8.55104260
Fe       7.08710697       1.41421755       9.94197208
Fe       5.71443834       2.83409454       0.00017621
Fe       7.10246658       4.27012380       1.42063356
Fe       5.66141426       2.83692892       2.82157667
Fe       7.09366052       4.25852445       4.25372390
Fe       5.66490341       2.83811532       5.67976226
Fe       7.09361867       4.25852451       7.10581378
Fe       5.66147134       2.83692880       8.53806021
Fe       7.10245569       4.26998864       9.93897513
Fe       5.66714750       5.67655197       0.00001519
Fe       7.10431338       7.10232328       1.42038632
Fe       5.65713679       5.66759543       2.81724268
Fe       7.08831695       7.10228837       4.24841217
Fe       5.67383527       5.67869565       5.67977693
Fe       7.08830723       7.10228839       7.11115768
Fe       5.65713766       5.66759554       8.54233779
Fe       7.10425133       7.10218437       9.93918675
Fe       5.66542543       8.53844415      -0.00001208
Fe       7.08606066       9.95338438       1.41390032
Fe       5.67281605       8.53227907       2.83292863
Fe       7.09433396       9.95953520       4.25445734
Fe       5.67400089       8.53433364       5.67978921
Fe       7.09435236       9.95953519       7.10514054
Fe       5.67282342       8.53227912       8.52665854
Fe       7.08598695       9.95327703       9.94566478
Fe       8.51968479       0.00919693       0.00000007
Fe       9.95226240       1.41421736       1.41760753
Fe       8.51973465       0.00463353       2.83474313
Fe       9.93724193       1.42235005       4.26230082
Fe       8.51968467       0.00309660       5.67978975
Fe       9.93717358       1.42234992       7.09734705
Fe       8.51963481       0.00463351       8.52483653
Fe       9.95210089       1.41432069       9.94198882
Fe       8.51968465       2.84363164       0.00000004
Fe       9.93691374       4.26998883       1.42060448
Fe       8.51971208       2.83811539       2.82500873
Fe       9.94575064       4.25852425       4.25376574
Fe       8.51968467       2.84172487       5.67978978
Fe       9.94570883       4.25852445       7.10585588
Fe       8.51965746       2.83811540       8.53457104
Fe       9.93690283       4.27012386       9.93894601
Fe       8.51968481       5.67631768      -0.00000002
Fe       9.93511815       7.10218450       1.42039268
Fe       8.51969763       5.67869572       2.83394025
Fe       9.95106232       7.10228850       4.24842201
Fe       8.51968488       5.68050398       5.67978982
Fe       9.95105246       7.10228852       7.11116727
Fe       8.51967183       5.67869557       8.52563938
Fe       9.93505592       7.10232333       9.93919331
Fe       8.51968470       8.52803631       0.00000011
Fe       9.95338250       9.95327705       1.41391471
Fe       8.51968519       8.53433367       2.83410600
Fe       9.94501698       9.95953527       4.25443919
Fe       8.51968471       8.53077643       5.67978983
Fe       9.94503561       9.95953541       7.10512206
Fe       8.51968409       8.53433349       8.52547365
Fe       9.95330878       9.95338447       9.94567933
Mn       2.83989492      -0.00322307      -0.00000017
127
Lattice="11.36236971184885 0.0 0.0 0.0 11.361248697635485 0.0 0.0 0.0 11.362369713909136" Properties=species:S:1:pos:R:3 pbc="T T T"
Fe       0.01729535       0.00025061      -0.04016132
Fe       1.39072533       1.34153107       1.45000414
Fe       1.37536879       1.36106779       4.19270987
Fe      -0.00088902      -0.00000984       5.72217832
Fe       1.42585682       1.41797677       7.11569309
Fe       0.00888428      -0.00000638       8.53274895
Fe       1.43962132       1.40067513       9.96091677
Fe       0.01315022       2.81449163       0.01350307
Fe       1.42813723       4.24730440       1.41250290
Fe       0.00753474       2.87409914       2.83318833
Fe       1.42241431       4.26381810       4.26526361
Fe       0.00414349       2.82190160       5.66990758
Fe       1.41957120       4.26310476       7.09804963
Fe       0.00550104       2.82772824       8.52610991
Fe       1.42259060       4.24630022       9.94654622
Fe       0.00174971       5.68059285       0.01022590
Fe       1.42808965       7.11394421       1.41245532
Fe       0.00594191       5.68062426       2.83465057
Fe       1.42244148       7.09759682       4.26517547
Fe       0.00217292       5.68066689       5.67213784
Fe       1.41955189       7.09811712       7.09811391
Fe       0.00498324       5.68064213       8.52779991
Fe       1.42256618       7.11498584       9.94656859
Fe       0.01303034       8.54654030       0.01342861
Fe       1.39058831      10.01971776       1.44986710
Fe       0.00740407       8.48714946       2.83305780
Fe       1.37524508      10.00005895       4.19297163
Fe       0.00407236       8.53928060       5.66997056
Fe       1.42579488       9.94297038       7.11581190
Fe       0.00538512       8.53352884       8.52616777
Fe       1.43952434       9.96053796       9.96090807
Fe       4.24205431       1.40071069       1.40106831
Fe       2.88075367      -0.00025057       2.82329724
Fe       4.25930812       1.41841624       4.25080520
Fe       2.82804753      -0.00012254       5.67061027
Fe       4.25641995       1.41555029       7.11290668
Fe       2.83296182      -0.00012028       8.53213783
Fe       4.24129509       1.40003192       9.96155037
Fe       2.82283745       2.80615902       0.01767131
Fe       4.25639351       4.24626284       1.41802641
Fe       2.82716379       2.81470847       2.82756225
Fe       4.25881415       4.26067728       4.26180597
Fe       2.82117140       2.82161671       5.66349287
Fe       4.25234736       4.25590434       7.09104808
Fe       2.83585293       2.82708514       8.53041286
Fe       4.24711907       4.23904646       9.95588445
Fe       2.83547381       5.68062436       0.00511873
Fe       4.25641587       7.11494854       1.41800169
Fe       2.83036655       5.68065572       2.83884281
Fe       4.25886255       7.10061670       4.26170744
Fe       2.83572923       5.68069174       5.67574969
Fe       4.25238658       7.10543679       7.09103275
Fe       2.83798405       5.68063274       8.52419366
Fe       4.24707801       7.12220213       9.95584300
Fe       2.82292127       8.55508963       0.01775485
Fe       4.24204541       9.96057363       1.40097096
Fe       2.82708953       8.54675706       2.82744188
Fe       4.25942166       9.94269670       4.25092075
Fe       2.82116217       8.53957147       5.66355384
Fe       4.25654368       9.94567830       7.11297707
Fe       2.83587727       8.53412927       8.53047584
Fe       4.24141160       9.96121658       9.96166703
Fe       5.67082433       0.00012050       0.00763053
Fe       7.08715007       1.41827822       1.41479765
Fe       5.67021348       0.00000640       2.83170799
Fe       7.10016323       1.42275953       4.26701597
Fe       5.68069925      -0.00001410       5.67425177
Fe       7.10388183       1.42042695       7.09907488
Fe       5.67310805       0.00000003       8.52985397
Fe       7.08998476       1.41557024       9.94641878
Fe       5.67248622       2.82711962       0.00471519
Fe       7.10484808       4.26313166       1.42104056
Fe       5.67679440       2.82771993       2.83520722
Fe       7.09743812       4.25610041       4.25577359
Fe       5.67518939       2.83154994       5.67680511
Fe       7.10428780       4.24874371       7.09861823
Fe       5.67390967       2.83302825       8.52897222
Fe       7.11192940       4.25581190       9.95057563
Fe       5.67876835       5.68061598       0.00260839
Fe       7.10491239       7.09814406       1.42102129
Fe       5.67516247       5.68060650       2.83560912
Fe       7.09751937       7.10511052       4.25569722
Fe       5.67799873       5.68067060       5.67871668
Fe       7.10434390       7.11250496       7.09867418
Fe       5.67488321       5.68062451       8.52807887
Fe       7.11191412       7.10534430       9.95061486
Fe       5.67254932       8.53416365       0.00473932
Fe       7.08726923       9.94327184       1.41473566
Fe       5.67685237       8.53352056       2.83509149
Fe       7.10011584       9.93843031       4.26700274
Fe       5.67529658       8.52962159       5.67681397
Fe       7.10388730       9.94082161       7.09908047
Fe       5.67398993       8.52822044       8.52905263
Fe       7.09005537       9.94569818       9.94654234
Fe       8.53235171       0.00012257       0.01254479
Fe      10.00999050       1.36118957       1.46534735
Fe       8.48078366       0.00000979       2.84148147
Fe       9.99282196       1.36583650       4.21020837
Fe       8.53301256       0.00000002       5.66994966
Fe       9.93595933       1.42281836       7.10284625
Fe       8.52871041       0.00001424       8.52226294
Fe       9.95204139       1.41855197       9.94354050
Fe       8.53940846       2.82167712       0.01943031
Fe       9.93778675       4.26365173       1.41815101
Fe       8.53299150       2.82196802       2.83652002
Fe       9.94571686       4.25650347       4.25722370
Fe       8.54015865       2.82016885       5.66279645
Fe       9.94726492       4.25613815       7.10544292
Fe       8.52614845       2.83162709       8.52766552
Fe       9.94125476       4.26063190       9.94409943
Fe       8.52721237       5.68055711       0.00486330
Fe       9.93769840       7.09743070       1.41817813
Fe       8.53082416       5.68058182       2.83841971
Fe       9.94573831       7.10474548       4.25724536
Fe       8.52636806       5.68062443       5.67659397
Fe       9.94718857       7.10514851       7.10552399
Fe       8.52424559       5.68057810       8.52496334
Fe       9.94115618       7.10057134       9.94414787
Fe       8.53946931       8.53963205       0.01942113
Fe      10.01025215      10.00018071       1.46522357
Fe       8.53305461       8.53934690       2.83644899
Fe       9.99275384       9.99541199       4.21014023
Fe       8.54016555       8.54107996       5.66280340
Fe       9.93594634       9.93848923       7.10279888
Fe       8.52615685       8.52969881       8.52777280
Fe       9.95215681       9.94283247       9.94365376
Mn       2.83573204      -0.00000008       0.00486030
127
Lattice="11.36093274104779 0.0 0.0 0.0 11.36420215528489 0.0 0.0 0.0 11.360951907287973" Properties=species:S:1:pos:R:3 pbc="T T T"
Fe       0.01519727      -0.00365535      -0.00243396
Fe       1.44022531       1.35630820       1.40005355
Fe       0.00784966      -0.00500314       2.83242776
Fe       1.42492711       1.42748284       4.23610514
Fe       0.00202707       0.00054473       5.67870234
Fe       1.42520702       1.42423876       7.11273350
Fe       0.00910656      -0.00011418       8.53047517
Fe       1.44158672       1.41048893       9.97330631
Fe       0.06817650       2.88169816       0.05459663
Fe       0.06693460       2.88666327       2.77326766
Fe       1.42126209       4.26507704       4.30018305
Fe       0.00599529       2.83451912       5.68027996
Fe       1.42135530       4.26522035       7.09874349
Fe       0.00690303       2.83401400       8.52464311
Fe       1.42724697       4.24939774       9.90772814
Fe       0.05611571       5.63101417       0.05350257
Fe       1.42341180       7.16028179       1.41695346
Fe       0.05810031       5.63014200       2.78219469
Fe       1.41954252       7.08942800       4.25162259
Fe       0.00045520       5.68325815       5.68202222
Fe       1.42034012       7.09111718       7.09860163
Fe       0.00402408       5.68287326       8.52464586
Fe       1.42234832       7.10625069       9.95550007
Fe       0.00566676       8.53653768      -0.00165834
Fe       1.43792273       9.96315725       1.40231162
Fe       0.00179188       8.53181447       2.83836658
Fe       1.42368789       9.94655679       4.23855137
Fe       0.00543090       8.52810904       5.68118787
Fe       1.42474222       9.94765841       7.11297476
Fe       0.00670124       8.52906955       8.52566459
Fe       1.43551919       9.96088113       9.96613702
Fe       4.22791230       1.41035430       1.39856617
Fe       2.84260911      -0.00368582       2.82493511
Fe       4.23861978       1.43576896       4.22846046
Fe       2.83971303       0.00036383       5.67653394
Fe       4.24971580       1.42146312       7.11429920
Fe       2.83807579       0.00061694       8.53782406
Fe       4.22176425       1.42270488       9.97928816
Fe       2.77971993       2.88063152       0.06062579
Fe       4.29352815       4.24958802       1.41327385
Fe       2.78566846       2.88180128       2.77197310
Fe       4.24576086       4.26285979       4.24762038
Fe       2.84133614       2.83822268       5.68018015
Fe       4.24950951       4.26340812       7.10030229
Fe       2.84028308       2.82864668       8.52971140
Fe       4.24094152       4.24683835       9.96026322
Fe       2.78293428       5.63188239       0.05743952
Fe       4.24574078       7.10628137       1.41781100
Fe       2.78660862       5.63116495       2.78431124
Fe       4.24383729       7.08225047       4.24488268
Fe       2.84291998       5.68409069       5.68262407
Fe       4.25543157       7.09489683       7.09925805
Fe       2.84128855       5.68423480       8.52129637
Fe       4.23870018       7.09621508       9.96246655
Fe       2.84149723       8.53988282      -0.00122517
Fe       4.23500062       9.96087043       1.40464808
Fe       2.84188260       8.53653320       2.83470847
Fe       4.25286319       9.94699599       4.24422915
Fe       2.83967011       8.52355719       5.68018609
Fe       4.25413950       9.94854445       7.11301626
Fe       2.83908114       8.53224440       8.53042125
Fe       4.23894178       9.96123373       9.96222195
Fe       5.66326049       0.00059130       0.00204815
Fe       7.08850572       1.42429814       1.41488081
Fe       5.67074463      -0.00007204       2.83112042
Fe       7.10352083       1.42699385       4.25698580
Fe       5.67152850       0.00975849       5.67175577
Fe       7.10267636       1.42448611       7.09844162
Fe       5.66387888       0.00880351       8.53729108
Fe       7.08684565       1.42145065       9.95132194
Fe       5.67133245       2.82853221       0.00017445
Fe       7.10239989       4.26525710       1.41889925
Fe       5.67650732       2.83401833       2.83348744
Fe       7.09495572       4.25569842       4.24586115
Fe       5.67333314       2.83675187       5.67988777
Fe       7.09554005       4.25601498       7.10563924
Fe       5.67304958       2.83709667       8.52820084
Fe       7.10088551       4.26332659       9.95170684
Fe       5.67987172       5.68408045      -0.00110781
Fe       7.10261794       7.09116899       1.41988610
Fe       5.67659106       5.68301776       2.83620850
Fe       7.09468303       7.10157060       4.25120984
Fe       5.67654162       5.67926513       5.67947029
Fe       7.09543878       7.10344205       7.10575045
Fe       5.67372080       5.67940203       8.52744681
Fe       7.10184644       7.09483725       9.94577717
Fe       5.67078937       8.53215405       0.00112942
Fe       7.08820404       9.94776112       1.41549117
Fe       5.67549472       8.52917839       2.83354743
Fe       7.10297914       9.94409459       4.26189919
Fe       5.66781458       8.52032800       5.67359994
Fe       7.10303018       9.94427265       7.09820777
Fe       5.66677152       8.52054951       8.53440844
Fe       7.08814020       9.94844992       9.94710154
Fe       8.52459352       0.00040423       0.00048324
Fe       9.96510536       1.42739809       1.41522890
Fe       8.52251564       0.00052764       2.83818669
Fe       9.95790084       1.44117891       4.24336524
Fe       8.52834445       0.01036608       5.67284190
Fe       9.94408370       1.42699339       7.09776457
Fe       8.52938394       0.00971495       8.52965442
Fe       9.97266746       1.43583327       9.96257803
Fe       8.52105107       2.83832104      -0.00123003
Fe       9.90098951       4.26507017       1.41892345
Fe       8.52094820       2.83441930       2.83408078
Fe       9.95933846       4.25678969       4.24184204
Fe       8.52169105       2.84046339       5.67945081
Fe       9.95528404       4.25576404       7.10621113
Fe       8.52133360       2.83676259       8.52777547
Fe       9.95362827       4.26290843       9.95541347
Fe       8.51856877       5.68414056      -0.00263839
Fe       9.94969849       7.08930245       1.42069888
Fe       8.51915037       5.68318959       2.83985714
Fe       9.96272575       7.08844575       4.23842285
Fe       8.52110980       5.67966129       5.68009820
Fe       9.94998932       7.10153011       7.10653237
Fe       8.52166602       5.67923800       8.52471786
Fe       9.95627666       7.08225843       9.95736412
Fe       8.52101920       8.52359646       0.00053962
Fe       9.96260834       9.94645250       1.41646492
Fe       8.51994778       8.52806772       2.83475331
Fe       9.94174685       9.94432591       4.25935512
Fe       8.52751415       8.51626554       5.67368976
Fe       9.93931685       9.94405332       7.09816443
Fe       8.52757598       8.52029539       8.53338347
Fe       9.95695858       9.94699280       9.94826675
Mn       2.84838694      -0.00905711      -0.00832305
127
Lattice="11.360860319345848 0.0 0.0 0.0 11.36086032714861 0.0 0.0 0.0 11.360860327346519" Properties=species:S:1:pos:R:3 pbc="T T T"
Fe       0.02135889       0.01444811       0.01435010
Fe       1.38914564       1.45106962       1.45106962
Fe       0.01333202      -0.04328374       2.82686730
Fe       1.36842625       1.47178876       4.18576658
Fe       0.00109496       0.01323355       5.66826213
Fe       1.42468114       1.41534040       7.11261290
Fe       0.00940872       0.00897155       8.52930800
Fe       1.44270516       1.39771629       9.96186126
Fe       0.01334776       2.82688289      -0.04328347
Fe       1.36842639       4.18576643       1.47178873
Fe       1.36838933       4.20862081       4.20857375
Fe       0.00507809       2.83515086       5.72151372
Fe       1.42183639       4.26482890       7.09981134
Fe       0.00595530       2.83426086       8.52641142
Fe       1.42645320       4.25026098       9.94164847
Fe       0.00115442       5.66831249       0.01327106
Fe       1.42487451       7.11261289       1.41553398
Fe       0.00506420       5.72151388       2.83513711
Fe       1.42174711       7.09984338       4.26498177
Fe       0.00116148       5.66726602       5.66727682
Fe       1.41912332       7.09788349       7.09797989
Fe       0.00597172       5.67078599       8.52673224
Fe       1.42400112       7.11163634       9.94605746
Fe       0.00941089       8.52918385       0.00898362
Fe       1.44249858       9.96186135       1.39751017
Fe       0.00595436       8.52641127       2.83425969
Fe       1.42635827       9.94169757       4.25014718
Fe       0.00592341       8.52670119       5.67078182
Fe       1.42403987       9.94592987       7.11158388
Fe       0.00746635       8.52746467       8.52748947
Fe       1.43748401       9.96386040       9.96381051
Fe       4.23921414       1.39751016       1.39771631
Fe       2.82576712       0.01435011       2.81885644
Fe       4.25942690       1.41376169       4.25026094
Fe       2.81887677       0.02125689       5.65811268
Fe       4.25501811       1.41621381       7.11163614
Fe       2.83401058       0.00607343       8.53174066
Fe       4.23726481       1.40273106       9.96386043
Fe       2.82586483       2.81885628       0.01444805
Fe       4.25937777       4.25014728       1.41385670
Fe       2.88349865       2.82686739       2.82688275
Fe       4.26206555       4.26381520       4.26383050
Fe       2.82694410       2.83906039       5.66831224
Fe       4.26009638       4.26193377       7.09767167
Fe       2.83123158       2.83080398       8.52918396
Fe       4.25436808       4.24644350       9.94674037
Fe       2.81895835       5.65811274       0.02133817
Fe       4.25514563       7.11158389       1.41617520
Fe       2.82698153       5.66826205       2.83912011
Fe       4.26003916       7.09767773       4.26185417
Fe       2.82242228       5.66235404       5.66233669
Fe       4.25111635       7.09071349       7.09065840
Fe       2.83509808       5.67540195       8.52156316
Fe       4.24665205       7.10300216       9.95433863
Fe       2.83414162       8.53174068       0.00620468
Fe       4.23721495       9.96381067       1.40273095
Fe       2.83124367       8.52930805       2.83080606
Fe       4.25433499       9.94670730       4.24644358
Fe       2.83507713       8.52157129       5.67539780
Fe       4.24673667       9.95442338       7.10300226
Fe       2.83747435       8.52983196       8.52980439
Fe       4.23115319       9.96992220       9.96992228
Fe       5.66933468       0.00620467       0.00607344
Fe       7.08846254       1.41553394       1.41534046
Fe       5.67189161       0.00898358       2.83080387
Fe       7.10126411       1.41837890       4.26482870
Fe       5.67951233       0.00511704       5.67540205
Fe       7.10309560       1.42109162       7.09788351
Fe       5.67127105       0.00274048       8.52983213
Fe       7.08949142       1.41617518       9.94592978
Fe       5.67176734       2.83080614       0.00897150
Fe       7.10123200       4.26498183       1.41846784
Fe       5.67466409       2.83425958       2.83426069
Fe       7.09400748       4.25818119       4.25828272
Fe       5.67434310       2.83424320       5.67078603
Fe       7.09520454       4.25382663       7.10586726
Fe       5.67358607       2.83274866       8.52746457
Fe       7.10339768       4.26185414       9.94103637
Fe       5.67950415       5.67539776       0.00513805
Fe       7.10319193       7.09798007       1.42109179
Fe       5.67437429       5.67078185       2.83429189
Fe       7.09520804       7.10587102       4.25382685
Fe       5.67782483       5.67611962       5.67609606
Fe       7.10248722       7.09858798       7.09858802
Fe       5.67426356       5.67896859       8.52680744
Fe       7.11036175       7.09065843       9.94995922
Fe       5.67124327       8.52980453       0.00274060
Fe       7.08943926       9.94605722       1.41621375
Fe       5.67361089       8.52748956       2.83274871
Fe       7.10340386       9.94097903       4.26193381
Fe       5.67426782       8.52681176       5.67896854
Fe       7.11041679       9.94995925       7.09071378
Fe       5.67203671       8.52903862       8.52903880
Fe       7.09807319       9.95433875       9.95442341
Fe       8.54296266       0.02133824       0.02125696
Fe      10.01530866       1.47178879       1.47178868
Fe       8.53276302       0.01327109       2.83906060
Fe       9.99250161       1.47182565       4.20862073
Fe       8.53873879       0.01779282       5.66235406
Fe       9.93609375       1.41846793       7.09984342
Fe       8.52567753       0.00513796       8.52157136
Fe       9.95092809       1.41385659       9.94169762
Fe       8.53281318       2.83912018       0.01323357
Fe       9.99245457       4.20857383       1.47182565
Fe       8.47956171       2.83513699       2.83515100
Fe      10.00150637       4.19956900       4.19956908
Fe       8.53379856       2.83905374       5.66726596
Fe       9.94289413       4.25828293       7.10706796
Fe       8.53029356       2.83429191       8.52670128
Fe       9.93726025       4.26383046       9.93900996
Fe       8.53872153       5.66233658       0.01779267
Fe       9.93624665       7.09981127       1.41837875
Fe       8.53380942       5.66727680       2.83905361
Fe       9.94279253       7.10706812       4.25818118
Fe       8.53849400       5.66258130       5.66258143
Fe       9.94724864       7.10586733       7.10587111
Fe       8.52495573       5.67609599       8.52325043
Fe       9.93914179       7.09767155       9.94097903
Fe       8.52567345       8.52156299       0.00511729
Fe       9.95081444       9.94164840       1.41376183
Fe       8.53028939       8.52673210       2.83424329
Fe       9.93724503       9.93900988       4.26381516
Fe       8.52497954       8.52325045       5.67611957
Fe       9.93922131       9.94103632       7.09767786
Fe       8.52210688       8.52680757       8.52681172
Fe       9.95463185       9.94674044       9.94670717
Mn       2.82532810       0.01488680       0.01488693
