127
Lattice="11.376911084868754 0.0 0.0 0.0 11.37691108525666 0.0 0.0 0.0 11.376911088395032" Properties=species:S:1:pos:R:3 pbc="T T T"
Fe       0.04090694       0.04258802       0.04263032
Fe       0.05528130       0.04973870       2.78892023
Fe       1.42475457       1.41964926       4.30829184
Fe       0.00261623      -0.00141548       5.68727101
Fe       1.42096976       1.42322976       7.11785993
Fe      -0.01105845      -0.00663490       8.52545284
Fe       1.38718265       1.45719243       9.87250354
Fe       0.05530756       2.78894640       0.04973870
Fe       1.42457864       4.30829198       1.41947321
Fe       0.05750260       2.78672511       2.78672508
Fe       1.42261402       4.25076810       4.25075856
Fe      -0.00445888       2.84874596       5.68952212
Fe       1.42278351       4.25692775       7.11119733
Fe      -0.01300944       2.85729396       8.51332013
Fe       1.42027443       4.25402830       9.96105365
Fe       0.00274839       5.68726489      -0.00147282
Fe       1.42099797       7.11786002       1.42325795
Fe      -0.00451822       5.68952211       2.84868667
Fe       1.42280033       7.11133347       4.25672292
Fe       0.00540832       5.68683309       5.68671625
Fe       1.42198795       7.11308570       7.11307839
Fe      -0.00547400       5.68744895       8.52778747
Fe       1.42163011       7.11834690       9.96222833
Fe      -0.01139225       8.52531593      -0.00672059
Fe       1.38703537       9.87250352       1.45704526
Fe      -0.01306625       8.51332008       2.85723734
Fe       1.42014348       9.96110050       4.25412635
Fe      -0.00549209       8.52769019       5.68747618
Fe       1.42161368       9.96206868       7.11824502
Fe      -0.00489690       8.52987077       8.52994976
Fe       1.39423391       9.94507079       9.94532733
Fe       4.34863538       1.45704523       1.45719241
Fe       2.80163984       0.04263010       2.80332091
Fe       4.26008526       1.42395333       4.25402841
Fe       2.84493332      -0.00091490       5.68286801
Fe       4.25891057       1.42259766       7.11834685
Fe       2.84117390       0.00290139       8.52389860
Fe       4.27581152       1.44999386       9.94507089
Fe       2.80159750       2.80332083       0.04258807
Fe       4.26003826       4.25412635       1.42408420
Fe       2.79448920       2.78892025       2.78894651
Fe       4.24744781       4.24429337       4.24421386
Fe       2.84570059       2.84147944       5.68726483
Fe       4.26553541       4.26149151       7.11299727
Fe       2.85094828       2.85562003       8.52531596
Fe       4.25399606       4.25259423       9.96716574
Fe       2.84514265       5.68286797      -0.00070553
Fe       4.25907011       7.11824504       1.42261421
Fe       2.84564316       5.68727108       2.84161143
Fe       4.26548590       7.11309703       4.26143224
Fe       2.84381484       5.68595470       5.68596278
Fe       4.26325076       7.11288817       7.11284641
Fe       2.84325185       5.68531511       8.53704938
Fe       4.26007143       7.12112436       9.96096419
Fe       2.84132640       8.52389857       0.00305396
Fe       4.27606808       9.94532727       1.44999392
Fe       2.85086255       8.52545285       2.85528626
Fe       4.25397310       9.96714270       4.25259419
Fe       2.84329777       8.53696137       5.68524136
Fe       4.26017464       9.96106740       7.12112447
Fe       2.84666986       8.53599838       8.53601963
Fe       4.24914405       9.97199475       9.97199477
Fe       5.69724027       0.00305394       0.00290141
Fe       7.10327891       1.42325796       1.42322975
Fe       5.69582290      -0.00672053       2.85562010
Fe       7.10994154       1.42144418       4.25692783
Fe       5.68408958       0.00097561       5.68531514
Fe       7.10806057       1.42223989       7.11308574
Fe       5.68511920      -0.00244207       8.53599848
Fe       7.10289390       1.42261418       9.96206861
Fe       5.69568597       2.85528620      -0.00663483
Fe       7.10980542       4.25672291       1.42142736
Fe       5.70781876       2.85723718       2.85729395
Fe       7.11858078       4.26866970       4.26869238
Fe       5.69335137       2.84970182       5.68744897
Fe       7.11470341       4.26831945       7.10633803
Fe       5.69118917       2.84912459       8.52987080
Fe       7.10804181       4.26143238       9.95565289
Fe       5.68417755       5.68524153       0.00093009
Fe       7.10805318       7.11307842       1.42223993
Fe       5.69344875       5.68747620       2.84971995
Fe       7.11480082       7.10643551       4.26831949
Fe       5.67661067       5.68131628       5.68122830
Fe       7.11414090       7.10699789       7.10699779
Fe       5.68655631       5.68387563       8.53455278
Fe       7.10825066       7.11284658       9.95788797
Fe       5.68514037       8.53601945      -0.00244207
Fe       7.10279208       9.96222824       1.42259768
Fe       5.69126815       8.52994977       2.84912470
Fe       7.10814165       9.95560337       4.26149144
Fe       5.68658605       8.53458252       5.68387575
Fe       7.10829244       9.95788813       7.11288823
Fe       5.68169375       8.53944511       8.53944510
Fe       7.10001433       9.96096419       9.96106746
Fe       8.53827081      -0.00070545      -0.00091491
Fe       9.91284679       1.41947324       1.41964921
Fe       8.53387390      -0.00147280       2.84147926
Fe       9.97038029       1.42161378       4.25076811
Fe       8.53517623       0.00041283       5.68595449
Fe       9.96441593       1.42142739       7.11133346
Fe       8.53589748       0.00092997       8.53696141
Fe       9.96701258       1.42408432       9.96110054
Fe       8.53386770       2.84161150      -0.00141554
Fe       9.97037078       4.25075854       1.42161370
Fe       8.53161669       2.84868651       2.84874600
Fe       9.97336705       4.24777192       4.24777169
Fe       8.53442276       2.83881944       5.68683318
Fe       9.95246919       4.26869236       7.10255819
Fe       8.53366279       2.84971989       8.52769035
Fe       9.97684563       4.24421384       9.97369110
Fe       8.53518436       5.68596272       0.00041286
Fe       9.96421113       7.11119737       1.42144436
Fe       8.53430583       5.68671620       2.83881942
Fe       9.95244649       7.10255816       4.26866993
Fe       8.54090995       5.68022896       5.68022891
Fe       9.95281936       7.10633808       7.10643560
Fe       8.53982258       5.68122832       8.54452817
Fe       9.95964741       7.11299729       9.95560346
Fe       8.53582400       8.53704939       0.00097589
Fe       9.96711060       9.96105362       1.42395348
Fe       8.53368990       8.52778738       2.84970186
Fe       9.97692495       9.97369113       4.24429320
Fe       8.53991057       8.54452816       5.68131635
Fe       9.95970650       9.95565283       7.11309684
Fe       8.53726330       8.53455278       8.53458256
Fe       9.96854457       9.96716584       9.96714282
Mo       2.76830287       0.07592475       0.07592483
127
Lattice="11.381161966752245 0.0 0.0 0.0 11.38071616163789 0.0 0.0 0.0 11.381161965466111" Properties=species:S:1:pos:R:3 pbc="T T T"
Fe       0.00657137       0.01427734       0.00007112
Fe       1.43013599       1.50174319       1.41560783
Fe       0.01073590       0.00887295       2.83454938
Fe       1.41716176       1.42220788       4.25901348
Fe       0.00947165       0.00384153       5.69057450
Fe       1.41723515       1.42215490       7.12222980
Fe       0.01074104       0.00887291       8.54660739
Fe       1.42968262       1.50174334       9.96600728
Fe      -0.04675938       2.85000407      -0.00006899
Fe       1.47295336       4.20796248       1.37232362
Fe      -0.00738064       2.86433866       2.85273285
Fe       1.42099060       4.27002859       4.26921111
Fe       0.00289748       2.84964572       5.69062414
Fe       1.42094113       4.26997958       7.11191882
Fe      -0.00744254       2.86433866       8.52849073
Fe       1.47296673       4.20796226      10.00882485
Fe       0.01760296       5.67903737       0.00002404
Fe       1.41653704       7.12586646       1.42885197
Fe       0.01334218       5.67461080       2.83194487
Fe       1.42321401       7.11466103       4.26597228
Fe       0.00851724       5.68694650       5.69056395
Fe       1.42318481       7.11457723       7.11507566
Fe       0.01334565       5.67461090       8.54921339
Fe       1.41643840       7.12586630       9.95240853
Fe       0.00316220       8.53467155       0.00004906
Fe       1.38650595       9.91411434       1.45879080
Fe      -0.00926721       8.52563842       2.85450977
Fe       1.42416032       9.95655253       4.25964673
Fe      -0.00057171       8.53235643       5.69052383
Fe       1.42407337       9.95644231       7.12145413
Fe      -0.00921927       8.52563828       8.52660440
Fe       1.38649988       9.91411439       9.92237733
Fe       4.26089826       1.50174322       1.41515447
Fe       2.84536153       0.01427739       2.83871906
Fe       4.27334573       1.42215505       4.25893212
Fe       2.84529045       0.00945163       5.69058111
Fe       4.27341896       1.42220789       7.12214847
Fe       2.84521953       0.01427745       8.54244299
Fe       4.26044497       1.50174318       9.96555413
Fe       4.21761428       4.20796251       1.37233717
Fe       2.84522139       2.85000401       2.89205002
Fe       4.26963970       4.26997956       4.26924312
Fe       2.84529063       2.83758015       5.69058105
Fe       4.26959025       4.27002856       7.11195085
Fe       2.84535943       2.85000403       8.48911195
Fe       4.21762782       4.20796252      10.00883826
Fe       2.84529050       5.73561636       0.00000018
Fe       4.27414241       7.12586639       1.42875356
Fe       2.84531453       5.67903730       2.82768753
Fe       4.26739624       7.11457690       4.26608618
Fe       2.84529065       5.68441898       5.69058098
Fe       4.26736703       7.11466097       7.11518970
Fe       2.84526649       5.67903741       8.55347463
Fe       4.27404385       7.12586648       9.95230982
Fe       2.84529057       8.52523475       0.00000011
Fe       4.30408139       9.91411408       1.45878456
Fe       2.84533959       8.53467147       2.84212839
Fe       4.26650749       9.95644239       4.25970772
Fe       2.84529045       8.54112700       5.69058104
Fe       4.26642064       9.95655251       7.12151506
Fe       2.84524146       8.53467140       8.53903362
Fe       4.30407506       9.91411427       9.92237125
Fe       5.68400963       0.01427740      -0.00007117
Fe       7.10430418       1.42220790       1.42812850
Fe       5.67983996       0.00887288       2.83455454
Fe       7.11209404       1.42317513       4.26688322
Fe       5.68110933       0.00384139       5.69058739
Fe       7.11217348       1.42317517       7.11435840
Fe       5.67984517       0.00887306       8.54661250
Fe       7.10422269       1.42215474       9.95310655
Fe       5.73734035       2.85000409       0.00006912
Fe       7.11450151       4.27002868       1.42430002
Fe       5.69802352       2.86433864       2.85267134
Fe       7.12079669       4.27626254       4.27550987
Fe       5.68768373       2.84964567       5.69053808
Fe       7.12080039       4.27626249       7.10565542
Fe       5.69796166       2.86433869       8.52842901
Fe       7.11453351       4.26997967       9.95681252
Fe       5.67297807       5.67903732      -0.00002421
Fe       7.11126275       7.11466110       1.42207658
Fe       5.67723554       5.67461086       2.83194842
Fe       7.11076072       7.09982772       4.26546254
Fe       5.68206398       5.68694651       5.69059801
Fe       7.11075312       7.09982760       7.11569158
Fe       5.67723897       5.67461087       8.54921721
Fe       7.11137665       7.11457695       9.95905633
Fe       5.68741879       8.53467148      -0.00004922
Fe       7.10493725       9.95655262       1.42113015
Fe       5.69980028       8.52563809       2.85455766
Fe       7.10631482       9.96435392       4.26104854
Fe       5.69115272       8.53235645       5.69063833
Fe       7.10633900       9.96435380       7.12013783
Fe       5.69984820       8.52563826       8.52665246
Fe       7.10499823       9.95644224       9.95994497
Fe       8.53587151       0.00945188       0.00000008
Fe       9.96752003       1.42215488       1.42805524
Fe       8.53586494       0.00384134       2.83581869
Fe       9.95956914       1.42317502       4.26680356
Fe       8.53587159       0.00179228       5.69058090
Fe       9.95964899       1.42317526       7.11427894
Fe       8.53587794       0.00384135       8.54534307
Fe       9.96743892       1.42220790       9.95303344
Fe       8.53587155       2.83757993       0.00000010
Fe       9.95720923       4.26997969       1.42434933
Fe       8.53591464       2.84964551       2.84239306
Fe       9.95094258       4.27626252       4.27550645
Fe       8.53587141       2.84117393       5.69058109
Fe       9.95094619       4.27626249       7.10565210
Fe       8.53582819       2.84964572       8.53876890
Fe       9.95724129       4.27002847       9.95686216
Fe       8.53587159       5.68441904       0.00000007
Fe       9.96036614       7.11457674       1.42210562
Fe       8.53585455       5.68694638       2.83677313
Fe       9.96098994       7.09982772       4.26547018
Fe       8.53587136       5.69264152       5.69058096
Fe       9.96098218       7.09982761       7.11569941
Fe       8.53588837       5.68694643       8.54438864
Fe       9.96048043       7.11466099       9.95908533
Fe       8.53587146       8.54112703       0.00000012
Fe       9.96674467       9.95644229       1.42121712
Fe       8.53581429       8.53235675       2.84586217
Fe       9.96540392       9.96435386       4.26102427
Fe       8.53587149       8.53799899       5.69058102
Fe       9.96542818       9.96435384       7.12011359
Fe       8.53592870       8.53235654       8.53529970
Fe       9.96680578       9.95655236       9.96003180
Mo       2.84529059      -0.06128960       0.00000007
127
Lattice="11.378018782402172 0.0 0.0 0.0 11.376368846974865 0.0 0.0 0.0 11.378018784420535" Properties=species:S:1:pos:R:3 pbc="T T T"
Fe      -0.01131732       0.00011607      -0.04151778
Fe       1.34413544       1.38251793       1.50005057
Fe       1.37628648       1.36721533       4.20952452
Fe       0.00624723      -0.00003889       5.73286056
Fe       1.42141987       1.42630051       7.12223130
Fe      -0.00914610      -0.00002389       8.52973681
Fe       1.38675638       1.45653602       9.91807161
Fe      -0.00696775       2.83646337       0.01472556
Fe       1.42396404       4.25846353       1.42054696
Fe      -0.01314572       2.89689207       2.85758370
Fe       1.42526589       4.26665429       4.26901677
Fe      -0.00268145       2.83276429       5.67491850
Fe       1.42044702       4.26458019       7.11276912
Fe      -0.01302430       2.84892905       8.52279565
Fe       1.41892373       4.25881319       9.95559985
Fe       0.00614761       5.68818130       0.01092430
Fe       1.42395767       7.11790539       1.42054073
Fe      -0.00293194       5.68818455       2.84743664
Fe       1.42538372       7.10969982       4.26888801
Fe       0.00563269       5.68822807       5.68048446
Fe       1.42043698       7.11175412       7.11276535
Fe      -0.00515549       5.68821401       8.53096592
Fe       1.41889306       7.11761083       9.95568771
Fe      -0.00700873       8.53986883       0.01473294
Fe       1.34445422       9.99385095       1.50036919
Fe      -0.01307906       8.47947686       2.85765040
Fe       1.37627789      10.00904004       4.20981024
Fe      -0.00273070       8.54357267       5.67497721
Fe       1.42146568       9.94979294       7.12225976
Fe      -0.01307442       8.52747602       8.52284340
Fe       1.38664728       9.92005263       9.91835231
Fe       4.30417109       1.45631619       1.45785752
Fe       2.88602251      -0.00011611       2.85582190
Fe       4.27120320       1.42607760       4.26442175
Fe       2.83227256      -0.00001529       5.68333345
Fe       4.27054241       1.42442418       7.11574156
Fe       2.84097904      -0.00007744       8.52670877
Fe       4.29929572       1.45672008       9.92320519
Fe       2.82703419       2.83065252       0.01744914
Fe       4.26683571       4.25875792       1.42561164
Fe       2.82977175       2.83649990       2.85151346
Fe       4.26422093       4.26375125       4.26479376
Fe       2.82509576       2.82029935       5.67420321
Fe       4.25817175       4.25837156       7.10536172
Fe       2.84159527       2.84411889       8.53123854
Fe       4.25993212       4.25423981       9.96259359
Fe       2.83942058       5.68818433       0.00508408
Fe       4.26692348       7.11755565       1.42558092
Fe       2.83358055       5.68818778       2.83835710
Fe       4.26427808       7.11265783       4.26480524
Fe       2.84019709       5.68822111       5.68570529
Fe       4.25821747       7.11798283       7.10540971
Fe       2.84055172       5.68819405       8.54023100
Fe       4.25993002       7.12212906       9.96259133
Fe       2.82705552       8.54571632       0.01747066
Fe       4.30445199       9.91983279       1.45774836
Fe       2.82977910       8.53990547       2.85147238
Fe       4.27119621       9.95020478       4.26458099
Fe       2.82513088       8.55601381       5.67430807
Fe       4.27062190       9.95195087       7.11575722
Fe       2.84155937       8.53220552       8.53136505
Fe       4.29931836       9.91964857       9.92322780
Fe       5.69581471       0.00007752       0.00352555
Fe       7.10026374       1.42657594       1.42303908
Fe       5.69278663       0.00002399       2.85365075
Fe       7.10657226       1.42424381       4.26953481
Fe       5.68334213       0.00000205       5.68093280
Fe       7.11133646       1.42122256       7.11125736
Fe       5.69370235      -0.00000006       8.52882108
Fe       7.10676611       1.42441797       9.95190163
Fe       5.69115856       2.84416328       0.00294539
Fe       7.10975813       4.26461481       1.42406774
Fe       5.69968009       2.84889311       2.85757905
Fe       7.11831930       4.27080837       4.27129869
Fe       5.69190809       2.84517602       5.68486011
Fe       7.12537674       4.26375061       7.09711550
Fe       5.70119322       2.85601278       8.52126517
Fe       7.11711372       4.25838605       9.96430600
Fe       5.68229256       5.68817469       0.00395287
Fe       7.10975418       7.11178879       1.42405758
Fe       5.69155740       5.68815471       2.84966028
Fe       7.11835494       7.10550589       4.27129671
Fe       5.68359672       5.68819492       5.68604283
Fe       7.12540803       7.11261833       7.09714674
Fe       5.69310670       5.68818443       8.52941670
Fe       7.11716172       7.11799734       9.96435161
Fe       5.69128488       8.53224999       0.00290931
Fe       7.10029232       9.95006819       1.42308492
Fe       5.69972779       8.52743959       2.85752887
Fe       7.10658569       9.95205705       4.26939499
Fe       5.69194577       8.53112833       5.68487988
Fe       7.11126598       9.95514630       7.11118709
Fe       5.70125822       8.52035605       8.52133038
Fe       7.10678190       9.95194461       9.95198110
Fe       8.53918997       0.00001525       0.01223217
Fe      10.01271326       1.36732883       1.46822672
Fe       8.48966283       0.00003882       2.83825741
Fe      10.01089055       1.36639489       4.21170357
Fe       8.54748862       0.00000003       5.67503498
Fe       9.95312851       1.42431174       7.11593794
Fe       8.54159081      -0.00000206       8.53918128
Fe       9.95794249       1.42616417       9.95132732
Fe       8.54821550       2.82035514       0.01937382
Fe       9.95363541       4.26666900       1.41912102
Fe       8.54754618       2.83279619       2.84723524
Fe       9.94818006       4.27547707       4.27426778
Fe       8.55394678       2.82120305       5.66859056
Fe       9.95122682       4.27086305       7.10416838
Fe       8.53764366       2.84524035       8.53057779
Fe       9.95771815       4.26371102       9.95824530
Fe       8.53681810       5.68814771       0.00430751
Fe       9.95350661       7.10971463       1.41923887
Fe       8.54203889       5.68814094       2.83887207
Fe       9.94825568       7.10089187       4.27434329
Fe       8.53765145       5.68818442       5.68487207
Fe       9.95122477       7.10556058       7.10420404
Fe       8.53648068       5.68817390       8.53892676
Fe       9.95772962       7.11261772       9.95830254
Fe       8.54832024       8.55606946       0.01940885
Fe      10.01299895      10.00915353       1.46821826
Fe       8.54760508       8.54360453       2.84718602
Fe      10.01081992      10.00997405       4.21163300
Fe       8.55393295       8.55516569       5.66857661
Fe       9.95298868       9.95212504       7.11595130
Fe       8.53766346       8.53119278       8.53061527
Fe       9.95810180       9.95029128       9.95132031
Mo       2.85489100      -0.00000006      -0.01038646
127
Lattice="11.37734812900116 0.0 0.0 0.0 11.3776812321662 0.0 0.0 0.0 11.377355658461676" Properties=species:S:1:pos:R:3 pbc="T T T"
Fe      -0.00807674      -0.00184600      -0.00171452
Fe       1.38532237       1.41309953       1.45903728
Fe      -0.00799103      -0.00586735       2.85235049
Fe       1.41958082       1.43552268       4.25304591
Fe       0.00554952       0.00100950       5.68871579
Fe       1.42024124       1.43153117       7.11623385
Fe      -0.00448423       0.00053005       8.52969428
Fe       1.39102035       1.46904982       9.93447208
Fe       0.05233454       2.89313128       0.05644811
Fe       0.04507458       2.90671549       2.79945892
Fe       1.42349441       4.26741649       4.30402027
Fe      -0.00536152       2.84731007       5.68899487
Fe       1.42252027       4.26607902       7.11292986
Fe      -0.01244682       2.85310631       8.52057250
Fe       1.42213867       4.26365407       9.91281153
Fe       0.06199509       5.63620574       0.05263721
Fe       1.41834243       7.16382456       1.42615402
Fe       0.04791242       5.64008856       2.79649719
Fe       1.42197958       7.10102967       4.25504284
Fe       0.00222452       5.69005808       5.69000203
Fe       1.42241955       7.10362346       7.11139803
Fe      -0.00634364       5.69093923       8.52724485
Fe       1.41969488       7.10660571       9.96306864
Fe      -0.01017988       8.53228356      -0.00378267
Fe       1.38721986       9.92384830       1.45691411
Fe      -0.01548739       8.52438998       2.85976333
Fe       1.41926476       9.95213240       4.25524961
Fe      -0.00485515       8.52754931       5.68896159
Fe       1.41922662       9.95368715       7.11485436
Fe      -0.01247440       8.52110735       8.52042173
Fe       1.38247070       9.92176178       9.92574723
Fe       4.28736306       1.46880006       1.45314760
Fe       2.84590184      -0.00173962       2.85219224
Fe       4.25176790       1.44254107       4.24624770
Fe       2.84368719       0.00058966       5.68601762
Fe       4.26336852       1.42907297       7.11633875
Fe       2.84387228      -0.00113033       8.52526354
Fe       4.28011690       1.47747763       9.94154113
Fe       2.78013849       2.89157733       0.06398631
Fe       4.30877032       4.26373538       1.42241807
Fe       2.78761672       2.89312493       2.79187402
Fe       4.25081701       4.26433369       4.24993686
Fe       2.84465303       2.83742254       5.68820381
Fe       4.25575331       4.26477515       7.11314896
Fe       2.84681266       2.84434542       8.52749878
Fe       4.25187409       4.26293795       9.96997402
Fe       2.79687783       5.64806409       0.04751556
Fe       4.25871342       7.10662474       1.42451783
Fe       2.79178880       5.63631758       2.78252016
Fe       4.24895584       7.09473057       4.24693879
Fe       2.84676092       5.69074444       5.68918168
Fe       4.26282909       7.10751419       7.11283023
Fe       2.84639087       5.69273050       8.53672973
Fe       4.25342546       7.10149958       9.96823265
Fe       2.84736262       8.53096525      -0.00299483
Fe       4.29587824       9.92172105       1.46196092
Fe       2.84820311       8.53236362       2.85463954
Fe       4.26584839       9.95377444       4.25731371
Fe       2.84439891       8.53744532       5.68908288
Fe       4.26769684       9.95356728       7.11356263
Fe       2.84443851       8.52893856       8.52654067
Fe       4.30181591       9.92046498       9.91983438
Fe       5.69650898      -0.00126126       0.00029753
Fe       7.10552666       1.43158315       1.42392782
Fe       5.69201746       0.00062937       2.84872747
Fe       7.10903041       1.42853683       4.26055536
Fe       5.67544875       0.00952140       5.68105221
Fe       7.11014852       1.42705616       7.11153012
Fe       5.68792452       0.00825688       8.53370909
Fe       7.10534997       1.42901333       9.95817556
Fe       5.69412590       2.84426748      -0.00224561
Fe       7.10875070       4.26603241       1.42183930
Fe       5.70108340       2.85307698       2.85684751
Fe       7.11524382       4.27170054       4.26237171
Fe       5.69086605       2.85094601       5.68877286
Fe       7.11567481       4.27192690       7.10600236
Fe       5.69780667       2.85662088       8.52388011
Fe       7.10853586       4.26476999       9.96593377
Fe       5.68502892       5.69260303      -0.00213078
Fe       7.11027091       7.10362113       1.42195477
Fe       5.69442022       5.69107651       2.85065479
Fe       7.11585433       7.09856543       4.26842068
Fe       5.68145789       5.68612835       5.68738480
Fe       7.11648119       7.10002438       7.10517041
Fe       5.69217908       5.68590097       8.52951617
Fe       7.10890284       7.10754483       9.95892739
Fe       5.69519770       8.52893532      -0.00001029
Fe       7.10684766       9.95378042       1.42520213
Fe       5.70125239       8.52117187       2.85683578
Fe       7.11025514       9.95638443       4.26411102
Fe       5.68591899       8.52057194       5.68091695
Fe       7.10963233       9.95599931       7.11202640
Fe       5.69428347       8.51325738       8.52744253
Fe       7.10819319       9.95343896       9.95404363
Fe       8.53568170       0.00062713       0.00066855
Fe       9.96882734       1.43555879       1.42475443
Fe       8.53307389       0.00101135       2.83879743
Fe       9.97309714       1.44154293       4.24860832
Fe       8.53996435       0.00939878       5.68173595
Fe       9.96114421       1.42856451       7.11265686
Fe       8.54062018       0.00948140       8.54620620
Fe       9.97533022       1.44265921       9.96994006
Fe       8.53348227       2.83748384      -0.00045103
Fe       9.91770427       4.26738223       1.42091289
Fe       8.53267085       2.84719379       2.84955077
Fe       9.96319795       4.27192726       4.25842970
Fe       8.53446629       2.84300721       5.68712918
Fe       9.95929838       4.27173311       7.10642479
Fe       8.53291287       2.85098200       8.53069693
Fe       9.97173711       4.26433170       9.97078485
Fe       8.53257084       5.69077229      -0.00228429
Fe       9.96673094       7.10099735       1.42232040
Fe       8.53169309       5.68997837       2.84219972
Fe       9.96627752       7.08702696       4.25542340
Fe       8.53452152       5.68510650       5.68718136
Fe       9.95328522       7.09853403       7.10584435
Fe       8.53425841       5.68613310       8.54026822
Fe       9.97483270       7.09466679       9.97277497
Fe       8.53267714       8.53744824      -0.00002720
Fe       9.96646086       9.95207180       1.42501477
Fe       8.53269390       8.52749043       2.84920101
Fe       9.95887701       9.95555168       4.26283179
Fe       8.53954585       8.52851507       5.68215222
Fe       9.95754678       9.95634015       7.11148103
Fe       8.54075680       8.52051756       8.53576152
Fe       9.96436688       9.95374987       9.95574435
Mo       2.85257929      -0.01085479      -0.00827110
127
Lattice="11.374530298103172 0.0 0.0 0.0 11.37453030025841 0.0 0.0 0.0 11.374530294891297" Properties=species:S:1:pos:R:3 pbc="T T T"
Fe      -0.00481362       0.01573894       0.01547466
Fe       1.31941851       1.52421400       1.52421393
Fe      -0.00166659      -0.04268700       2.84527713
Fe       1.37271058       1.47090980       4.21296340
Fe       0.00625462       0.01449510       5.67699099
Fe       1.42187533       1.42163793       7.11880541
Fe      -0.00738803       0.00836537       8.52700144
Fe       1.38767085       1.45626956       9.91392174
Fe      -0.00164459       2.84529918      -0.04268708
Fe       1.37272293       4.21296351       1.47092202
Fe       1.36494983       4.20205951       4.20193745
Fe      -0.00165734       2.84531584       5.72953684
Fe       1.42276470       4.26623681       7.11197129
Fe      -0.01208315       2.85573509       8.51995159
Fe       1.42278916       4.26443875       9.95027145
Fe       0.00632167       5.67682559       0.01450932
Fe       1.42199468       7.11880551       1.42175724
Fe      -0.00168334       5.72953686       2.84528983
Fe       1.42259673       7.11193437       4.26634469
Fe       0.00407445       5.67134950       5.67139974
Fe       1.41959218       7.10838287       7.10846527
Fe      -0.00393291       5.67699320       8.52859009
Fe       1.41812053       7.11376151       9.95258379
Fe      -0.00734222       8.52692403       0.00828628
Fe       1.38736296       9.91392171       1.45596177
Fe      -0.01210230       8.51995148       2.85571563
Fe       1.42261887       9.95030014       4.26449771
Fe      -0.00396870       8.52851000       5.67709979
Fe       1.41816022       9.95239963       7.11377842
Fe      -0.01282365       8.52121006       8.52126866
Fe       1.38736959       9.92479844       9.92482120
Fe       4.30424115       1.45596160       1.45626972
Fe       2.82789351       0.01547455       2.84844626
Fe       4.26789138       1.42084360       4.26443870
Fe       2.82511552       0.01844562       5.67152739
Fe       4.26557913       1.42551214       7.11376141
Fe       2.84092704       0.00259145       8.52685439
Fe       4.29334148       1.45626301       9.92479849
Fe       2.82815801       2.84844631       0.01573911
Fe       4.26786258       4.26449775       1.42101364
Fe       2.88631973       2.84527708       2.84529906
Fe       4.26611131       4.26599550       4.26582540
Fe       2.82912323       2.83731076       5.67682579
Fe       4.26377579       4.26436331       7.10943139
Fe       2.83534614       2.85097491       8.52692395
Fe       4.26528361       4.26084992       9.95292674
Fe       2.82518688       5.67152737       0.01851706
Fe       4.26576317       7.11377850       1.42547249
Fe       2.82913746       5.67699109       2.83737802
Fe       4.26372387       7.10954570       4.26433538
Fe       2.82073319       5.66529896       5.66527550
Fe       4.25582363       7.10056283       7.10056539
Fe       2.83856972       5.68217947       8.53728050
Fe       4.25914148       7.10527588       9.95895048
Fe       2.84104111       8.52685450       0.00270543
Fe       4.29336433       9.92482137       1.45626306
Fe       2.83526709       8.52700162       2.85102039
Fe       4.26523616       9.95287920       4.26084995
Fe       2.83849626       8.53727448       5.68221352
Fe       4.25921247       9.95902129       7.10527586
Fe       2.84078945       8.52575369       8.52579908
Fe       4.29250414       9.92565846       9.92565867
Fe       5.69130828       0.00270543       0.00259145
Fe       7.09935744       1.42175726       1.42163796
Fe       5.69123892       0.00828645       2.85097485
Fe       7.10619156       1.42086782       4.26623668
Fe       5.68088243       0.00506286       5.68217968
Fe       7.10969747       1.42404046       7.10838293
Fe       5.69236374       0.00284312       8.52575362
Fe       7.10438436       1.42547220       9.95239957
Fe       5.69116132       2.85102036       0.00836536
Fe       7.10622857       4.26634462       1.42103577
Fe       5.69821125       2.85571563       2.85573494
Fe       7.11293164       4.27090252       4.27097939
Fe       5.68957287       2.84756524       5.67699342
Fe       7.11620791       4.26909172       7.10192097
Fe       5.69689433       2.85645621       8.52121011
Fe       7.10861704       4.26433529       9.95443892
Fe       5.68088824       5.68221338       0.00513646
Fe       7.10978012       7.10846511       1.42404044
Fe       5.68965284       5.67709982       2.84760118
Fe       7.11624181       7.10195492       4.26909186
Fe       5.68287215       5.68185659       5.68179442
Fe       7.12489601       7.09326690       7.09326696
Fe       5.69165015       5.68523065       8.52650538
Fe       7.11760002       7.10056565       9.96233918
Fe       5.69240923       8.52579911       0.00284296
Fe       7.10440117       9.95258386       1.42551220
Fe       5.69695278       8.52126848       2.85645625
Fe       7.10873144       9.95438718       4.26436293
Fe       5.69165758       8.52651290       5.68523063
Fe       7.11759717       9.96233923       7.10056277
Fe       5.70117921       8.51698370       8.51698386
Fe       7.11288685       9.95895033       9.95902137
Fe       8.54663545       0.01851708       0.01844572
Fe      10.00519929       1.47092197       1.47090974
Fe       8.54133710       0.01450953       2.83731091
Fe      10.01622552       1.47868287       4.20205946
Fe       8.55288728       0.02289930       5.66529892
Fe       9.95181839       1.42103577       7.11193444
Fe       8.53594936       0.00513626       8.53727441
Fe       9.95366515       1.42101365       9.95030015
Fe       8.54117201       2.83737807       0.01449491
Fe      10.01610334       4.20193737       1.47868276
Fe       8.48862598       2.84529009       2.84531594
Fe      10.00745825       4.21070449       4.21070471
Fe       8.54676297       2.83955825       5.67134957
Fe       9.94726008       4.27097936       7.10523142
Fe       8.54106337       2.84760111       8.52850983
Fe       9.95216746       4.26582530       9.95205167
Fe       8.55286392       5.66527563       0.02289943
Fe       9.95192604       7.11197129       1.42086789
Fe       8.54681325       5.67139993       2.83955826
Fe       9.94718349       7.10523143       4.27090278
Fe       8.55395621       5.66420672       5.66420639
Fe       9.94907141       7.10192104       7.10195510
Fe       8.53630635       5.68179437       8.53529103
Fe       9.95379960       7.10943150       9.95438718
Fe       8.53598329       8.53728046       0.00506291
Fe       9.95372402       9.95027160       1.42084352
Fe       8.54116958       8.52859021       2.84756536
Fe       9.95233742       9.95205150       4.26599527
Fe       8.53636844       8.53529085       5.68185659
Fe       9.95382754       9.95443901       7.10954553
Fe       8.53293215       8.52650551       8.52651291
Fe       9.95731283       9.95292673       9.95287926
Mo       2.81992214       0.02371055       0.02371040
