127
Lattice="11.400241491567714 0.0 0.0 0.0 11.400241493934264 0.0 0.0 0.0 11.400241490336544" Properties=species:S:1:pos:R:3 pbc="T T T"
Fe       0.15015277       0.05068021       0.05100929
Fe       0.04581835       0.03759529       2.80410251
Fe       1.43372203       1.41646319       4.31482248
Fe      -0.00596177      -0.00144680       5.69344900
Fe       1.42300880       1.42695972       7.12166326
Fe      -0.00184592      -0.00574606       8.54290438
Fe       1.40611584       1.44416909       9.90812578
Fe       0.04595801       2.80424211       0.03759527
Fe       1.43359720       4.31482244       1.41633818
Fe       0.04812219       2.80193819       2.80193829
Fe       1.41848038       4.26719101       4.26721632
Fe      -0.00657856       2.85670587       5.69779158
Fe       1.41860466       4.27123309       7.12208110
Fe      -0.01109315       2.86122581       8.53938429
Fe       1.43616348       4.26302048       9.99405545
Fe      -0.00581051       5.69346624      -0.00131300
Fe       1.42310069       7.12166329       1.42705167
Fe      -0.00664565       5.69779170       2.85663885
Fe       1.41860074       7.12208640       4.27097349
Fe       0.00046268       5.70033629       5.70025739
Fe       1.41677414       7.12211048       7.12206401
Fe      -0.00210509       5.69676921       8.54733367
Fe       1.43042981       7.12528161       9.98416681
Fe      -0.00199740       8.54291467      -0.00560317
Fe       1.40589130       9.90812573       1.44394447
Fe      -0.01116549       8.53938436       2.86115358
Fe       1.43591510       9.99415802       4.26289258
Fe      -0.00202271       8.54733278       5.69676927
Fe       1.43061248       9.98398109       7.12520674
Fe       0.00183579       8.55135316       8.55136098
Fe       1.43866988       9.97596707       9.97589426
Fe       4.34217605       1.44394454       1.44416913
Fe       2.79938024       0.05100944       2.69990765
Fe       4.25624640       1.41389681       4.26302049
Fe       2.84723033       0.00268567       5.69593885
Fe       4.26613507       1.41963057       7.12528156
Fe       2.84514089       0.00490579       8.57596985
Fe       4.27440758       1.41139046       9.97596699
Fe       2.79905111       2.69990766       0.05068022
Fe       4.25614385       4.26289252       1.41414527
Fe       2.81246496       2.80410246       2.80424203
Fe       4.26658973       4.26471438       4.26458059
Fe       2.85137337       2.85587097       5.69346631
Fe       4.28344794       4.27446010       7.12284552
Fe       2.85566357       2.85205774       8.54291468
Fe       4.24644853       4.25512382      10.00403512
Fe       2.84737476       5.69593880       0.00283007
Fe       4.26632084       7.12520668       1.41944797
Fe       2.85150726       5.69344905       2.85602215
Fe       4.28350074       7.12291271       4.27464734
Fe       2.85027182       5.69998008       5.70004119
Fe       4.28250502       7.12382270       7.12379380
Fe       2.85192991       5.69524357       8.54623115
Fe       4.26024039       7.13131848       9.98981720
Fe       2.84515456       8.57596969       0.00491951
Fe       4.27433485       9.97589438       1.41139047
Fe       2.85580634       8.54290425       2.85190621
Fe       4.24626679      10.00385326       4.25512379
Fe       2.85205463       8.54622509       5.69517588
Fe       4.26048461       9.99006142       7.13131850
Fe       2.85434325       8.55136191       8.55139405
Fe       4.20910529      10.04119670      10.04119659
Fe       5.67433202       0.00491946       0.00490580
Fe       7.12863855       1.42705160       1.42695974
Fe       5.70738723      -0.00560312       2.85205780
Fe       7.12822077       1.43145569       4.27123292
Fe       5.70407067      -0.00186953       5.69524350
Fe       7.12823784       1.43328629       7.12211061
Fe       5.69890782      -0.00428288       8.55136204
Fe       7.12509510       1.41944799       9.98398111
Fe       5.70739759       2.85190618      -0.00574605
Fe       7.12821554       4.27097348       1.43145964
Fe       5.71091756       2.86115353       2.86122581
Fe       7.12874274       4.27725509       4.27726012
Fe       5.70296819       2.85216548       5.69676924
Fe       7.12404165       4.27164973       7.12621782
Fe       5.69894089       2.84822449       8.55135313
Fe       7.12738912       4.27464741       9.96680116
Fe       5.70407679       5.69517583      -0.00199426
Fe       7.12819134       7.12206403       1.43328629
Fe       5.70296910       5.69676929       2.85208299
Fe       7.12408400       7.12626019       4.27164969
Fe       5.69516844       5.69544120       5.69543710
Fe       7.11698317       7.13331876       7.13331880
Fe       5.69178669       5.69553600       8.55843443
Fe       7.12647919       7.12379375       9.96779686
Fe       5.69893989       8.55139401      -0.00428278
Fe       7.12502020       9.98416685       1.41963054
Fe       5.69894877       8.55136091       2.84822457
Fe       7.12745634       9.96685389       4.27446003
Fe       5.69186731       8.55851517       5.69553600
Fe       7.12650811       9.96779687       7.12382270
Fe       5.67748697       8.57281489       8.57281493
Fe       7.11898341       9.98981734       9.99006150
Fe       8.55436302       0.00283015       0.00268568
Fe       9.93547940       1.41633838       1.41646317
Fe       8.55683555      -0.00131306       2.85587090
Fe       9.98308549       1.43157999       4.26719103
Fe       8.55026079      -0.00021137       5.69998021
Fe       9.97932840       1.43145959       7.12208625
Fe       8.55512605      -0.00199436       8.54622507
Fe       9.98740932       1.41414520       9.99415802
Fe       8.55685271       2.85602223      -0.00144680
Fe       9.98311084       4.26721643       1.43158000
Fe       8.55251023       2.85663891       2.85670596
Fe       9.98552263       4.26477920       4.26477922
Fe       8.55004452       2.84959770       5.70033626
Fe       9.97304672       4.27726012       7.12155913
Fe       8.55353259       2.85208319       8.54733280
Fe       9.98558742       4.26458059       9.98371218
Fe       8.55032172       5.70004109      -0.00021151
Fe       9.97906882       7.12208098       1.43145577
Fe       8.54996561       5.70025738       2.84959765
Fe       9.97304182       7.12155916       4.27725505
Fe       8.55055210       5.69974978       5.69974971
Fe       9.97865216       7.12621792       7.12626017
Fe       8.55486064       5.69543707       8.55513343
Fe       9.97584181       7.12284560       9.96685381
Fe       8.55505830       8.54623119      -0.00186950
Fe       9.98728128       9.99405546       1.41389688
Fe       8.55353260       8.54733370       2.85216546
Fe       9.98572131       9.98371212       4.26471441
Fe       8.55486482       8.55513346       5.69544125
Fe       9.97565449       9.96680112       7.12291277
Fe       8.55476583       8.55843443       8.55851517
Fe       9.99517793      10.00403507      10.00385334
Os       2.79367240       0.05638800       0.05638784
127
Lattice="11.385711921938427 0.0 0.0 0.0 11.447598112718033 0.0 0.0 0.0 11.385711935629496" Properties=species:S:1:pos:R:3 pbc="T T T"
Fe       0.08387730       0.00177222       0.00007951
Fe       1.47944781       1.50390933       1.36733520
Fe       0.02782404       0.01912188       2.81864703
Fe       1.43680093       1.42389417       4.26084254
Fe       0.00693783       0.00539342       5.69291787
Fe       1.43685651       1.42374170       7.12503571
Fe       0.02778083       0.01912199       8.56710780
Fe       1.47909252       1.50390933      10.01873181
Fe      -0.04151478       2.88278301      -0.00029316
Fe       1.46533933       4.26177713       1.38090615
Fe       0.00730591       2.87088206       2.83907974
Fe       1.41064796       4.30048893       4.27409706
Fe       0.00859748       2.85821992       5.69291850
Fe       1.41070616       4.30046303       7.11160552
Fe       0.00734810       2.87088212       8.54658992
Fe       1.46552189       4.26177688      10.00462343
Fe       0.00021274       5.72079657      -0.00007842
Fe       1.41751841       7.15695106       1.42907675
Fe       0.00444324       5.71329711       2.84196071
Fe       1.41003268       7.15006679       4.28072469
Fe      -0.00431678       5.71668622       5.69285638
Fe       1.40998918       7.15004880       7.10485379
Fe       0.00446726       5.71329729       8.54372731
Fe       1.41735098       7.15695133       9.95680234
Fe      -0.00399399       8.57446316      -0.00000132
Fe       1.40236979       9.95596757       1.44406573
Fe      -0.01440335       8.57370219       2.86079283
Fe       1.43117642      10.02073183       4.26133734
Fe      -0.00348923       8.59022707       5.69277926
Fe       1.43127364      10.02049558       7.12432683
Fe      -0.01436488       8.57370210       8.52488079
Fe       1.40236226       9.95596746       9.94165366
Fe       4.21376327       1.50390922       1.36698010
Fe       2.84650772       0.00177187       2.76255058
Fe       4.25599972       1.42374184       4.26067624
Fe       2.84642801       0.00210165       5.69285581
Fe       4.25605485       1.42389412       7.12486940
Fe       2.84634843       0.00177175       8.62316155
Fe       4.21340815       1.50390951      10.01837658
Fe       4.22733411       4.26177682       1.38108832
Fe       2.84613465       2.88278284       2.88794264
Fe       4.28214983       4.30046284       4.27410655
Fe       2.84642785       2.87046423       5.69285621
Fe       4.28220802       4.30048922       7.11161473
Fe       2.84672097       2.88278291       8.49776937
Fe       4.22751667       4.26177702      10.00480566
Fe       2.84642793       5.77691592      -0.00000006
Fe       4.27550475       7.15695113       1.42890945
Fe       2.84634915       5.72079664       2.84621530
Fe       4.28286681       7.15004892       4.28085808
Fe       2.84642806       5.71626238       5.69285585
Fe       4.28282305       7.15006659       7.10498692
Fe       2.84650667       5.72079687       8.53949657
Fe       4.27533752       7.15695131       9.95663488
Fe       2.84642783       8.64394730       0.00000005
Fe       4.29049368       9.95596743       1.44405825
Fe       2.84642659       8.57446324       2.85042207
Fe       4.26158254      10.02049530       4.26138512
Fe       2.84642810       8.58371411       5.69285567
Fe       4.26167940      10.02073179       7.12437466
Fe       2.84642938       8.57446324       8.53528982
Fe       4.29048596       9.95596763       9.94164640
Fe       5.60897849       0.00177196      -0.00007949
Fe       7.10727038       1.42389422       1.40962695
Fe       5.66507498       0.01912163       2.81860414
Fe       7.11551606       1.43785049       4.26917858
Fe       5.68591831       0.00539343       5.69279414
Fe       7.11560644       1.43785043       7.11662368
Fe       5.66503219       0.01912207       8.56706495
Fe       7.10710448       1.42374145       9.97614044
Fe       5.73437057       2.88278295       0.00029322
Fe       7.12052507       4.30048923       1.43578005
Fe       5.68550769       2.87088230       2.83912215
Fe       7.11616350       4.28368009       4.26973528
Fe       5.68425836       2.85821989       5.69279364
Fe       7.11616309       4.28368014       7.11597608
Fe       5.68555008       2.87088244       8.54663201
Fe       7.12053456       4.30046284       9.94998989
Fe       5.69264334       5.72079686       0.00007875
Fe       7.12715280       7.15006659       1.43639496
Fe       5.68838858       5.71329715       2.84198480
Fe       7.12053138       7.14706026       4.27411685
Fe       5.69717281       5.71668642       5.69285527
Fe       7.12054508       7.14706022       7.11160835
Fe       5.68841260       5.71329758       8.54375117
Fe       7.12728629       7.15004895       9.94927310
Fe       5.69684974       8.57446310       0.00000135
Fe       7.10776520      10.02073210       1.41525146
Fe       5.70722086       8.57370191       2.86083117
Fe       7.11049791      10.02550067       4.26399034
Fe       5.69634470       8.59022708       5.69293275
Fe       7.11041798      10.02550053       7.12164193
Fe       5.70725908       8.57370213       8.52491916
Fe       7.10781319      10.02049556       9.97055731
Fe       8.53928383       0.00210150      -0.00000014
Fe       9.97146380       1.42374159       1.40957136
Fe       8.53934565       0.00539351       2.83949014
Fe       9.96296132       1.43785063       4.26908816
Fe       8.53928400       0.00619803       5.69285600
Fe       9.96305171       1.43785069       7.11653337
Fe       8.53922206       0.00539321       8.54622178
Fe       9.97129753       1.42389422       9.97608497
Fe       8.53928387       2.87046433       0.00000013
Fe       9.95803353       4.30046301       1.43572212
Fe       8.53934620       2.85822000       2.83783047
Fe       9.96240445       4.28368028       4.26973556
Fe       8.53928398       2.85445636       5.69285605
Fe       9.96240441       4.28368007       7.11597666
Fe       8.53922169       2.85821975       8.54788134
Fe       9.95804271       4.30048916       9.94993205
Fe       8.53928389       5.71626235      -0.00000004
Fe       9.95128158       7.15004896       1.43643858
Fe       8.53928444       5.71668644       2.85074491
Fe       9.95802296       7.14706022       4.27410317
Fe       8.53928403       5.70731956       5.69285597
Fe       9.95803666       7.14706041       7.11159512
Fe       8.53928344       5.71668637       8.53496714
Fe       9.95141476       7.15006658       9.94931655
Fe       8.53928377       8.58371405      -0.00000007
Fe       9.97075483      10.02049559       1.41515460
Fe       8.53920700       8.59022744       2.84991689
Fe       9.96814971      10.02550057       4.26406981
Fe       8.53928388       8.60263950       5.69285588
Fe       9.96807003      10.02550060       7.12172182
Fe       8.53936083       8.59022726       8.53579494
Fe       9.97080269      10.02073170       9.97046053
Os       2.84642842      -0.09285725      -0.00000006
127
Lattice="11.404366248290712 0.0 0.0 0.0 11.392739620206571 0.0 0.0 0.0 11.404366262658405" Properties=species:S:1:pos:R:3 pbc="T T T"
Fe       0.05148853      -0.00007019      -0.03779092
Fe       1.36585327       1.35212212       1.48460962
Fe       1.38103086       1.35705484       4.21811720
Fe      -0.00974721      -0.00004249       5.74369649
Fe       1.43162278       1.41823738       7.13206391
Fe      -0.01012061       0.00009429       8.54362263
Fe       1.40981712       1.43118447       9.95641809
Fe       0.00027401       2.83376658       0.01695561
Fe       1.43897718       4.26875473       1.41197632
Fe      -0.00974512       2.89495015       2.86077968
Fe       1.42108736       4.27879443       4.28282350
Fe       0.00044204       2.83529133       5.69003317
Fe       1.41718899       4.27657876       7.12392835
Fe      -0.00712390       2.85136522       8.54507554
Fe       1.43201892       4.26371162       9.98905169
Fe      -0.00076678       5.69637083       0.00847399
Fe       1.43911499       7.12398491       1.41211419
Fe       0.00006860       5.69636989       2.85102300
Fe       1.42113986       7.11374786       4.28256942
Fe       0.00322271       5.69640717       5.69535638
Fe       1.41716288       7.11627399       7.12377993
Fe       0.00024254       5.69642083       8.55597290
Fe       1.43190843       7.12903712       9.98919786
Fe       0.00021628       8.55907196       0.01686768
Fe       1.36648193      10.04061754       1.48523831
Fe      -0.00968852       8.49778941       2.86083713
Fe       1.38086946      10.03591885       4.21814182
Fe       0.00037949       8.55754986       5.68990369
Fe       1.43172639       9.97419769       7.13219359
Fe      -0.00720898       8.54140905       8.54515833
Fe       1.40990316       9.96158232       9.95637769
Fe       4.29907996       1.43115715       1.44118834
Fe       2.88888231       0.00006994       2.79960298
Fe       4.27171496       1.41983596       4.27242310
Fe       2.83653717      -0.00011501       5.69207172
Fe       4.27176106       1.41806619       7.12622246
Fe       2.85341286      -0.00002221       8.61513239
Fe       4.29459343       1.43530471       9.96084614
Fe       2.83038197       2.74530638       0.02059961
Fe       4.26626019       4.26370227       1.41918315
Fe       2.83422357       2.83366758       2.85087569
Fe       4.28108105       4.27325865       4.27732244
Fe       2.83045944       2.83451502       5.68676125
Fe       4.27531327       4.26837850       7.11844958
Fe       2.84422814       2.84381712       8.55154464
Fe       4.25955913       4.25744997       9.99601267
Fe       2.84848567       5.69636990       0.00260611
Fe       4.26640587       7.12902767       1.41907264
Fe       2.84261785       5.69636880       2.85185843
Fe       4.28115483       7.11955299       4.27746398
Fe       2.84896751       5.69641774       5.69857673
Fe       4.27541101       7.12426977       7.11847453
Fe       2.84750573       5.69636082       8.55467928
Fe       4.25944515       7.13528953       9.99589863
Fe       2.83049219       8.64743327       0.02070941
Fe       4.29903917       9.96155531       1.44127417
Fe       2.83413599       8.55897297       2.85081765
Fe       4.27155964       9.97266165       4.27249593
Fe       2.83035338       8.55825130       5.68686075
Fe       4.27192649       9.97487386       7.12632428
Fe       2.84429923       8.54883898       8.55155857
Fe       4.29461145       9.95743533       9.96086453
Fe       5.64032563       0.00002240      -0.00232140
Fe       7.12326408       1.41854171       1.41936548
Fe       5.71183545      -0.00009415       2.86121205
Fe       7.13022380       1.43790378       4.28539258
Fe       5.70627731      -0.00000693       5.69338262
Fe       7.13322203       1.43362718       7.12235812
Fe       5.70875087      -0.00000001       8.54670681
Fe       7.12913374       1.41786589       9.98353124
Fe       5.70389916       2.84390071       0.00679170
Fe       7.13167785       4.27646567       1.43392880
Fe       5.71029908       2.85133060       2.85830043
Fe       7.12926298       4.27588717       4.27712009
Fe       5.69971982       2.84774683       5.69757628
Fe       7.13649520       4.26892939       7.11896596
Fe       5.71084668       2.85645385       8.54455691
Fe       7.13698315       4.26846995       9.98004674
Fe       5.70077865       5.69637887       0.00358584
Fe       7.13152944       7.11616116       1.43390265
Fe       5.69948541       5.69631899       2.85084905
Fe       7.12921430       7.11674282       4.27715017
Fe       5.69655175       5.69631553       5.69886653
Fe       7.13649172       7.12381019       7.11896283
Fe       5.70016386       5.69636986       8.55529383
Fe       7.13700824       7.12436097       9.98014461
Fe       5.70391323       8.54892259       0.00686340
Fe       7.12339376       9.97450213       1.41946857
Fe       5.71038238       8.54137443       2.85821530
Fe       7.13028129       9.95478998       4.28520380
Fe       5.69975474       8.54494689       5.69754259
Fe       7.13309940       9.95911252       7.12223564
Fe       5.71090119       8.53628555       8.54461104
Fe       7.12923557       9.97467325       9.98369678
Fe       8.56338604       0.00011498       0.01455434
Fe      10.03731607       1.35682058       1.47022204
Fe       8.51176130       0.00004247       2.86083856
Fe      10.02313084       1.38361364       4.23245187
Fe       8.56692671       0.00000002       5.68853142
Fe       9.97025365       1.43794955       7.12517648
Fe       8.56207521       0.00000682       8.54918072
Fe       9.98296191       1.42007812       9.98389807
Fe       8.56859701       2.83448789       0.02073817
Fe       9.97288853       4.27899216       1.42995168
Fe       8.56555382       2.83518982       2.85071212
Fe       9.97482419       4.27842995       4.28060828
Fe       8.57148351       2.83373903       5.68399339
Fe       9.97830751       4.27599670       7.12624314
Fe       8.55791539       2.84779261       8.55570310
Fe       9.97799380       4.27318682       9.97430309
Fe       8.55688101       5.69632223       0.00212400
Fe       9.97263406       7.11394508       1.43000414
Fe       8.56010153       5.69633246       2.84786861
Fe       9.97484969       7.11430970       4.28063365
Fe       8.55549032       5.69636961       5.69996764
Fe       9.97833771       7.11685240       7.12619492
Fe       8.55659098       5.69642423       8.55890598
Fe       9.97813496       7.11948087       9.97437652
Fe       8.56869656       8.55822450       0.02063208
Fe      10.03734077      10.03568513       1.47006053
Fe       8.56542441       8.55744817       2.85064978
Fe      10.02300589      10.00912625       4.23232702
Fe       8.57146441       8.55900074       5.68397418
Fe       9.97006503       9.95483567       7.12523411
Fe       8.55788195       8.54499291       8.55573826
Fe       9.98303436       9.97290380       9.98374269
Os       2.85305989      -0.00000050      -0.00196797
127
Lattice="11.396496842729066 0.0 0.0 0.0 11.4034890210768 0.0 0.0 0.0 11.396500714509312" Properties=species:S:1:pos:R:3 pbc="T T T"
Fe       0.07115246      -0.00580232      -0.00118955
Fe       1.42728738       1.40655817       1.42169387
Fe      -0.00083050       0.00087670       2.84985668
Fe       1.43397136       1.43414077       4.25665767
Fe      -0.00021613       0.00394457       5.69714063
Fe       1.43780358       1.42387104       7.12959056
Fe      -0.00035477       0.00635678       8.54943435
Fe       1.43053899       1.44638313       9.98608009
Fe       0.06316089       2.90124692       0.05682096
Fe       0.05397186       2.91082863       2.79524287
Fe       1.41662016       4.28283906       4.31687059
Fe      -0.00041728       2.84695197       5.70128415
Fe       1.41648268       4.28025969       7.12053869
Fe      -0.00462526       2.85288463       8.54271189
Fe       1.42673893       4.27846861       9.93477238
Fe       0.04686770       5.65695893       0.05138536
Fe       1.43546734       7.18189383       1.41391794
Fe       0.04676641       5.66102624       2.80247860
Fe       1.41730992       7.11315765       4.26787544
Fe      -0.00295887       5.70247482       5.70007614
Fe       1.41673423       7.11528616       7.11756423
Fe      -0.00440786       5.70599536       8.54464085
Fe       1.43363243       7.11990083       9.99547172
Fe      -0.00784507       8.55308350      -0.00262100
Fe       1.40556732       9.95763354       1.44343336
Fe      -0.01494863       8.54252543       2.86407404
Fe       1.42887850       9.98308033       4.26217628
Fe      -0.00277579       8.55194391       5.69865126
Fe       1.42929273       9.98527927       7.12513361
Fe      -0.01006182       8.53980357       8.53678315
Fe       1.39851511       9.95383434       9.95468200
Fe       4.26010047       1.44641575       1.41846629
Fe       2.85026622      -0.00565727       2.77741368
Fe       4.24137666       1.43884679       4.24949936
Fe       2.84643083       0.00015731       5.69243986
Fe       4.25649758       1.42007377       7.12851561
Fe       2.84745420      -0.00838617       8.62507777
Fe       4.25881763       1.45290060       9.98656761
Fe       2.80238793       2.85945519       0.04669766
Fe       4.31074245       4.27855153       1.42275830
Fe       2.79193261       2.90148289       2.78576241
Fe       4.26638671       4.27924212       4.26180786
Fe       2.85013370       2.85416473       5.69634456
Fe       4.27288431       4.27807757       7.12064253
Fe       2.85273565       2.85133845       8.54675754
Fe       4.25632080       4.28002091       9.98956678
Fe       2.79122487       5.64176852       0.05793493
Fe       4.25025534       7.12002193       1.41524456
Fe       2.79767483       5.65711283       2.80253250
Fe       4.26497115       7.10739523       4.26144644
Fe       2.85191624       5.70180004       5.69936275
Fe       4.27793067       7.11925148       7.12019462
Fe       2.85048794       5.70658531       8.53944013
Fe       4.24396451       7.11201222      10.00152855
Fe       2.85183757       8.64825412      -0.00265611
Fe       4.29117719       9.95379562       1.45066278
Fe       2.85168453       8.55318783       2.85703282
Fe       4.26625839       9.98569375       4.26560973
Fe       2.84907959       8.55039572       5.69853280
Fe       4.26706459       9.98536227       7.12411393
Fe       2.84847174       8.54877102       8.54496227
Fe       4.29593775       9.95371759       9.94952242
Fe       5.62049993      -0.00849536       0.00149697
Fe       7.11617597       1.42410148       1.41110018
Fe       5.69625812       0.00642887       2.84940370
Fe       7.12659912       1.43901897       4.27224047
Fe       5.69240600       0.01102321       5.69035151
Fe       7.12704490       1.43820051       7.11862772
Fe       5.69522621       0.01111012       8.55040438
Fe       7.11701434       1.41992595       9.98886612
Fe       5.69878310       2.85132153      -0.00318729
Fe       7.12519784       4.28019931       1.43270578
Fe       5.70296400       2.85296656       2.85405257
Fe       7.11942184       4.27348633       4.26490256
Fe       5.69422301       2.84929362       5.69764699
Fe       7.12154444       4.27333551       7.12406769
Fe       5.70086610       2.85574226       8.54479548
Fe       7.12488824       4.27815764       9.97273159
Fe       5.70621374       5.70643144      -0.00135176
Fe       7.12791862       7.11517299       1.43241076
Fe       5.70091989       5.70617809       2.85361466
Fe       7.12664763       7.11943846       4.27615255
Fe       5.69506187       5.69797024       5.69665154
Fe       7.12789494       7.11968877       7.11771988
Fe       5.69963994       5.70230495       8.54598933
Fe       7.12550981       7.11929549       9.96771859
Fe       5.70070126       8.54867425       0.00070374
Fe       7.12054518       9.98543798       1.41998919
Fe       5.70885833       8.53982465       2.85921669
Fe       7.12569536       9.97485547       4.27393009
Fe       5.69363803       8.54590053       5.69141768
Fe       7.12584253       9.97373482       7.11968722
Fe       5.70217794       8.53249939       8.54347850
Fe       7.12150267       9.98512576       9.97874983
Fe       8.55312240       0.00020928       0.00266459
Fe       9.98892204       1.43406135       1.41512127
Fe       8.54848343       0.00391631       2.84936876
Fe       9.98620293       1.45440246       4.25933499
Fe       8.55476799       0.01070004       5.69086104
Fe       9.97346347       1.43902938       7.11899167
Fe       8.55520533       0.01097891       8.55319319
Fe       9.99596229       1.43903605      10.00428895
Fe       8.54927863       2.85425717      -0.00119396
Fe       9.92893103       4.28280576       1.43253453
Fe       8.54430525       2.84690454       2.84939217
Fe       9.98609231       4.27404749       4.25950071
Fe       8.54927172       2.85250652       5.69626910
Fe       9.98080206       4.27344049       7.12620581
Fe       8.54794797       2.84931791       8.55129823
Fe       9.98382951       4.27916922       9.97916195
Fe       8.54633674       5.70182053      -0.00267221
Fe       9.97776921       7.11314808       1.43173641
Fe       8.54553763       5.70238038       2.85216675
Fe       9.98215013       7.10811091       4.26342481
Fe       8.54880078       5.69023987       5.69692246
Fe       9.96955334       7.11945344       7.11902549
Fe       8.54896837       5.69791251       8.55056735
Fe       9.98431583       7.10719666       9.98064059
Fe       8.54713976       8.55035932       0.00003333
Fe       9.98336742       9.98279515       1.42008535
Fe       8.54690620       8.55183207       2.85186696
Fe       9.97267127       9.97630571       4.27297882
Fe       8.55359975       8.55178939       5.69206512
Fe       9.97159816       9.97483015       7.12003148
Fe       8.55420374       8.54583948       8.55197323
Fe       9.97994669       9.98570758       9.97919023
Os       2.85020287      -0.03927212      -0.00084665
127
Lattice="11.396269847870887 0.0 0.0 0.0 11.396269846609304 0.0 0.0 0.0 11.396269839895414" Properties=species:S:1:pos:R:3 pbc="T T T"
Fe       0.08100204       0.01305713       0.01294504
Fe       1.36356012       1.48550732       1.48550725
Fe       0.00547844      -0.04749553       2.84361830
Fe       1.37483638       1.47449584       4.20327767
Fe      -0.00258601       0.01717643       5.68644746
Fe       1.43079210       1.41800566       7.12967199
Fe      -0.00397034       0.01042812       8.54340743
Fe       1.41108183       1.43815582       9.95156108
Fe       0.00544916       2.84358911      -0.04749540
Fe       1.37457151       4.20327775       1.47423117
Fe       1.35951496       4.21713401       4.21703478
Fe      -0.00029337       2.84947294       5.74673620
Fe       1.41844881       4.27952161       7.12095777
Fe      -0.00990231       2.85899187       8.53727230
Fe       1.43262577       4.27047831       9.97578083
Fe      -0.00250116       5.68648227       0.01719865
Fe       1.43106175       7.12967205       1.41827540
Fe      -0.00040549       5.74673623       2.84936071
Fe       1.41834221       7.12083379       4.27955187
Fe       0.00034058       5.68270334       5.68268354
Fe       1.41502635       7.11779250       7.11777979
Fe       0.00091234       5.68554507       8.54980192
Fe       1.43150378       7.12272476       9.98293888
Fe      -0.00388211       8.54325933       0.01042224
Fe       1.41091160       9.95156115       1.43798554
Fe      -0.00992437       8.53727227       2.85896969
Fe       1.43243524       9.97593009       4.27037757
Fe       0.00087771       8.54983269       5.68558166
Fe       1.43167421       9.98271851       7.12271689
Fe      -0.00526321       8.54251234       8.54252366
Fe       1.41507454       9.96412098       9.96402608
Fe       4.29377619       1.43798558       1.43815589
Fe       2.83601033       0.01294511       2.76806543
Fe       4.26955648       1.41644164       4.27047831
Fe       2.82409080       0.02489531       5.67130596
Fe       4.26239836       1.41756365       7.12272475
Fe       2.84623553       0.00282112       8.61280803
Fe       4.28131128       1.43399309       9.96412100
Fe       2.83612248       2.76806542       0.01305716
Fe       4.26940719       4.27037758       1.41663215
Fe       2.89656278       2.84361830       2.84358904
Fe       4.28095852       4.27796064       4.27777343
Fe       2.83186889       2.85156857       5.68648231
Fe       4.27982220       4.27644654       7.11845970
Fe       2.83864527       2.85294957       8.54325945
Fe       4.26389932       4.26896827       9.98158865
Fe       2.82417218       5.67130607       0.02497664
Fe       4.26261885       7.12271676       1.41739313
Fe       2.83189111       5.68644755       2.85165369
Fe       4.27979261       7.11858871       4.27649555
Fe       2.82710768       5.67688302       5.67687564
Fe       4.27072817       7.11138640       7.11147401
Fe       2.84434264       5.69246055       8.54472437
Fe       4.25605291       7.11567067       9.98908499
Fe       2.84624636       8.61280813       0.00283183
Fe       4.28121609       9.96402604       1.43399298
Fe       2.83863932       8.54340743       2.85303781
Fe       4.26374871       9.98143804       4.26896829
Fe       2.84431470       8.54474778       5.69253897
Fe       4.25625228       9.98928442       7.11567069
Fe       2.84689025       8.54488673       8.54488082
Fe       4.26933818       9.97599912       9.97599908
Fe       5.63252919       0.00283182       0.00282110
Fe       7.11566531       1.41827536       1.41800577
Fe       5.70207789       0.01042217       2.85294953
Fe       7.12437951       1.43061861       4.27952155
Fe       5.70061294       0.00472484       5.69246048
Fe       7.12755747       1.43404126       7.11779249
Fe       5.70045647       0.00217740       8.54488672
Fe       7.12262043       1.41739330       9.98271856
Fe       5.70192984       2.85303782       0.01042801
Fe       7.12450346       4.27955194       1.43072530
Fe       5.70806511       2.85896973       2.85899184
Fe       7.12113280       4.27739798       4.27750999
Fe       5.69553545       2.84815507       5.68554521
Fe       7.12418915       4.27187580       7.12112218
Fe       5.70281357       2.85433060       8.54251232
Fe       7.12674851       4.27649559       9.96554479
Fe       5.70058956       5.69253893       0.00475283
Fe       7.12754476       7.11777971       1.43404107
Fe       5.69550460       5.68558172       2.84818976
Fe       7.12421521       7.12114821       4.27187590
Fe       5.69550690       5.69452328       5.69449362
Fe       7.12942528       7.11591203       7.11591205
Fe       5.69686890       5.69744409       8.54847269
Fe       7.13395094       7.11147395       9.97460916
Fe       5.70045055       8.54488078       0.00217730
Fe       7.12261251       9.98293900       1.41756372
Fe       5.70282495       8.54252378       2.85433074
Fe       7.12687769       9.96551516       4.27644653
Fe       5.69686459       8.54846838       5.69744406
Fe       7.13386348       9.97460910       7.11138641
Fe       5.70234457       8.54299270       8.54299279
Fe       7.12966664       9.98908501       9.98928448
Fe       8.57403134       0.02497673       0.02489539
Fe      10.04205959       1.47423126       1.47449587
Fe       8.55885485       0.01719861       2.85156857
Fe      10.02830254       1.48955253       4.21713394
Fe       8.56846162       0.02195983       5.67688296
Fe       9.96578539       1.43072526       7.12083388
Fe       8.55279834       0.00475268       8.54474778
Fe       9.97495974       1.41663224       9.97592995
Fe       8.55888981       2.85165351       0.01717642
Fe      10.02820345       4.21703480       1.48955255
Fe       8.49860099       2.84936077       2.84947296
Fe      10.02570602       4.21963125       4.21963121
Fe       8.56265390       2.84872680       5.68270341
Fe       9.96793935       4.27751001       7.12420451
Fe       8.55975571       2.84818969       8.54983266
Fe       9.96737673       4.27777341       9.96437880
Fe       8.56845433       5.67687564       0.02195984
Fe       9.96581574       7.12095771       1.43061864
Fe       8.56263396       5.68268346       2.84872686
Fe       9.96782719       7.12420438       4.27739804
Fe       8.56656694       5.67877041       5.67877043
Fe       9.97346147       7.12112216       7.12114816
Fe       8.55081407       5.69449365       8.54983034
Fe       9.96889079       7.11845965       9.96551520
Fe       8.55287673       8.54472436       0.00472480
Fe       9.97485901       9.97578085       1.41644161
Fe       8.55979226       8.54980191       2.84815512
Fe       9.96756385       9.96437874       4.27796063
Fe       8.55084362       8.54983037       5.69452325
Fe       9.96884184       9.96554474       7.11858870
Fe       8.54789327       8.54847267       8.54846833
Fe       9.97636905       9.98158861       9.98143801
Os       2.82248897       0.02657846       0.02657859
